<additional>
    <edgeData id="edge_occupancy" file="edgedata.xml" period="1"/>
</additional>