<?xml version="1.0" encoding="UTF-8"?>
<routes xmlns:xsi="http://www.w3.org/2001/XMLSchema-instance" xsi:noNamespaceSchemaLocation="http://sumo.dlr.de/xsd/routes_file.xsd">
    <vehicle id="0" depart="0.00">
        <route edges="27173918#0 27173918#1 27173918#2 27173918#3 44336472#5 44336472#6 4314421#3 4314421#4 4314421#5 7649042#0 7649042#1 7649042#2 43407393#3 43407393#4 43407393#5 43407393#6 43407393#7 44336473#0 44336473#1 44336474#0 44336474#1 44336474#2 425082671#0 425082671#1 219137730#0 219137730#1 195664261#0 195664261#1 195664261#2 195664262 392502703 767647776 -767647776 -392502703 -195664262"/>
    </vehicle>
    <vehicle id="1" depart="3.00">
        <route edges="11101896#1 11101896#2 44336474#0 44336474#1 44336474#2 425082671#0 425082671#1 -425082671#1 -425082671#0 -7971523#1 -7971523#0"/>
    </vehicle>
</routes>