<?xml version="1.0" encoding="UTF-8"?>

<!-- generated on 2026-02-11 14:58:01 by Eclipse SUMO netconvert Version 1.22.0
<netconvertConfiguration xmlns:xsi="http://www.w3.org/2001/XMLSchema-instance" xsi:noNamespaceSchemaLocation="http://sumo.dlr.de/xsd/netconvertConfiguration.xsd">

    <input>
        <osm-files value="mapa.osm"/>
    </input>

    <output>
        <output-file value="map.net.xml"/>
    </output>

    <projection>
        <proj.utm value="true"/>
    </projection>

</netconvertConfiguration>
-->

<net version="1.20" junctionCornerDetail="5" limitTurnSpeed="5.50" xmlns:xsi="http://www.w3.org/2001/XMLSchema-instance" xsi:noNamespaceSchemaLocation="http://sumo.dlr.de/xsd/net_file.xsd">

    <location netOffset="-438981.34,-4474429.74" convBoundary="0.00,0.00,3132.37,4130.01" origBoundary="-3.719495,40.418316,-3.682520,40.455568" projParameter="+proj=utm +zone=30 +ellps=WGS84 +datum=WGS84 +units=m +no_defs"/>

    <type id="highway.cycleway" priority="1" numLanes="1" speed="5.56" allow="bicycle" oneway="0" width="2.00"/>
    <type id="highway.footway" priority="1" numLanes="1" speed="2.78" allow="pedestrian" oneway="1" width="2.00"/>
    <type id="highway.living_street" priority="2" numLanes="1" speed="2.78" disallow="tram rail_urban rail rail_electric rail_fast ship container cable_car subway aircraft wheelchair scooter drone" oneway="0"/>
    <type id="highway.pedestrian" priority="1" numLanes="1" speed="2.78" allow="pedestrian" oneway="1" width="2.00"/>
    <type id="highway.primary" priority="12" numLanes="2" speed="27.78" disallow="tram rail_urban rail rail_electric rail_fast ship container cable_car subway aircraft wheelchair scooter drone" oneway="0"/>
    <type id="highway.residential" priority="3" numLanes="1" speed="13.89" disallow="tram rail_urban rail rail_electric rail_fast ship container cable_car subway aircraft wheelchair scooter drone" oneway="0"/>
    <type id="highway.secondary" priority="11" numLanes="1" speed="27.78" disallow="tram rail_urban rail rail_electric rail_fast ship container cable_car subway aircraft wheelchair scooter drone" oneway="0"/>
    <type id="highway.service" priority="1" numLanes="1" speed="5.56" allow="pedestrian delivery bicycle" oneway="0"/>
    <type id="highway.steps" priority="1" numLanes="1" speed="1.39" allow="pedestrian" oneway="1" width="2.00"/>
    <type id="highway.tertiary" priority="10" numLanes="1" speed="22.22" disallow="tram rail_urban rail rail_electric rail_fast ship container cable_car subway aircraft wheelchair scooter drone" oneway="0"/>
    <type id="railway.subway" priority="18" numLanes="1" speed="27.78" allow="subway" oneway="1"/>

    <edge id=":10059226229_0" function="internal">
        <lane id=":10059226229_0_0" index="0" allow="pedestrian delivery bicycle" speed="5.56" length="0.31" shape="2090.75,2143.81 2090.43,2143.83"/>
    </edge>
    <edge id=":10059226229_1" function="internal">
        <lane id=":10059226229_1_0" index="0" allow="pedestrian delivery bicycle" speed="5.56" length="0.26" shape="2090.22,2140.64 2090.48,2140.62"/>
    </edge>
    <edge id=":10059226230_0" function="internal">
        <lane id=":10059226230_0_0" index="0" allow="pedestrian delivery bicycle" speed="5.56" length="0.22" shape="2101.36,2143.07 2101.13,2143.08"/>
    </edge>
    <edge id=":10059226230_1" function="internal">
        <lane id=":10059226230_1_0" index="0" allow="pedestrian delivery bicycle" speed="5.56" length="0.31" shape="2100.92,2139.89 2101.23,2139.87"/>
    </edge>
    <edge id=":101181988_0" function="internal">
        <lane id=":101181988_0_0" index="0" disallow="tram rail_urban rail rail_electric rail_fast ship container cable_car subway aircraft wheelchair scooter drone" speed="13.89" length="6.36" shape="2146.29,2563.74 2144.88,2564.09 2143.94,2564.44 2143.04,2564.89 2141.72,2565.53"/>
        <lane id=":101181988_0_1" index="1" disallow="tram rail_urban rail rail_electric rail_fast ship container cable_car subway aircraft wheelchair scooter drone" speed="13.89" length="6.36" shape="2145.64,2560.61 2144.02,2561.00 2142.94,2561.39 2141.90,2561.89 2140.39,2562.62"/>
        <lane id=":101181988_0_2" index="2" disallow="tram rail_urban rail rail_electric rail_fast ship container cable_car subway aircraft wheelchair scooter drone" speed="13.89" length="6.36" shape="2144.99,2557.47 2143.16,2557.91 2141.94,2558.34 2140.77,2558.89 2139.06,2559.71"/>
        <lane id=":101181988_0_3" index="3" disallow="tram rail_urban rail rail_electric rail_fast ship container cable_car subway aircraft wheelchair scooter drone" speed="13.89" length="6.36" shape="2144.34,2554.34 2142.31,2554.82 2140.95,2555.29 2139.63,2555.90 2137.73,2556.80"/>
        <lane id=":101181988_0_4" index="4" disallow="tram rail_urban rail rail_electric rail_fast ship container cable_car subway aircraft wheelchair scooter drone" speed="13.89" length="6.36" shape="2143.70,2551.21 2141.45,2551.73 2139.95,2552.24 2138.50,2552.90 2136.40,2553.89"/>
    </edge>
    <edge id=":101181988_5" function="internal">
        <lane id=":101181988_5_0" index="0" disallow="tram rail_urban rail rail_electric rail_fast ship container cable_car subway aircraft wheelchair scooter drone" speed="6.98" length="5.26" shape="2137.40,2549.20 2137.61,2550.75 2137.93,2553.22 2138.07,2555.58 2137.73,2556.80"/>
        <lane id=":101181988_5_1" index="1" disallow="tram rail_urban rail rail_electric rail_fast ship container cable_car subway aircraft wheelchair scooter drone" speed="5.76" length="5.26" shape="2137.40,2549.20 2137.45,2551.03 2137.30,2552.42 2136.95,2553.37 2136.40,2553.89"/>
        <lane id=":101181988_5_2" index="2" disallow="tram rail_urban rail rail_electric rail_fast ship container cable_car subway aircraft wheelchair scooter drone" speed="4.72" length="5.26" shape="2137.40,2549.20 2137.19,2549.84 2136.60,2550.31 2135.83,2550.66 2135.07,2550.98"/>
    </edge>
    <edge id=":1016578203_0" function="internal">
        <lane id=":1016578203_0_0" index="0" disallow="tram rail_urban rail rail_electric rail_fast ship container cable_car subway aircraft wheelchair scooter drone" speed="13.89" length="6.38" shape="1790.08,1848.99 1783.45,1848.44"/>
        <lane id=":1016578203_0_1" index="1" disallow="tram rail_urban rail rail_electric rail_fast ship container cable_car subway aircraft wheelchair scooter drone" speed="13.89" length="6.38" shape="1790.18,1845.79 1783.83,1845.27"/>
        <lane id=":1016578203_0_2" index="2" disallow="tram rail_urban rail rail_electric rail_fast ship container cable_car subway aircraft wheelchair scooter drone" speed="13.89" length="6.38" shape="1790.29,1842.59 1784.20,1842.09"/>
    </edge>
    <edge id=":1016578203_3" function="internal">
        <lane id=":1016578203_3_0" index="0" disallow="tram rail_urban rail rail_electric rail_fast ship container cable_car subway aircraft wheelchair scooter drone" speed="13.89" length="5.57" shape="1785.32,1832.55 1790.60,1833.00"/>
        <lane id=":1016578203_3_1" index="1" disallow="tram rail_urban rail rail_electric rail_fast ship container cable_car subway aircraft wheelchair scooter drone" speed="13.89" length="5.57" shape="1784.95,1835.73 1790.50,1836.19"/>
        <lane id=":1016578203_3_2" index="2" disallow="tram rail_urban rail rail_electric rail_fast ship container cable_car subway aircraft wheelchair scooter drone" speed="13.89" length="5.57" shape="1784.57,1838.91 1790.39,1839.39"/>
    </edge>
    <edge id=":1016578253_0" function="internal">
        <lane id=":1016578253_0_0" index="0" disallow="tram rail_urban rail rail_electric rail_fast ship container cable_car subway aircraft wheelchair scooter drone" speed="13.89" length="5.07" shape="1724.18,1836.72 1719.32,1835.21"/>
        <lane id=":1016578253_0_1" index="1" disallow="tram rail_urban rail rail_electric rail_fast ship container cable_car subway aircraft wheelchair scooter drone" speed="13.89" length="5.07" shape="1725.12,1833.66 1720.27,1832.16"/>
        <lane id=":1016578253_0_2" index="2" disallow="tram rail_urban rail rail_electric rail_fast ship container cable_car subway aircraft wheelchair scooter drone" speed="13.89" length="5.07" shape="1726.06,1830.60 1721.23,1829.10"/>
    </edge>
    <edge id=":1016578253_3" function="internal">
        <lane id=":1016578253_3_0" index="0" disallow="tram rail_urban rail rail_electric rail_fast ship container cable_car subway aircraft wheelchair scooter drone" speed="13.89" length="5.03" shape="1724.09,1819.94 1728.88,1821.42"/>
        <lane id=":1016578253_3_1" index="1" disallow="tram rail_urban rail rail_electric rail_fast ship container cable_car subway aircraft wheelchair scooter drone" speed="13.89" length="5.03" shape="1723.14,1822.99 1727.94,1824.48"/>
        <lane id=":1016578253_3_2" index="2" disallow="tram rail_urban rail rail_electric rail_fast ship container cable_car subway aircraft wheelchair scooter drone" speed="13.89" length="5.03" shape="1722.18,1826.05 1727.00,1827.54"/>
    </edge>
    <edge id=":1016578323_0" function="internal">
        <lane id=":1016578323_0_0" index="0" disallow="tram rail_urban rail rail_electric rail_fast ship container cable_car subway aircraft wheelchair scooter drone" speed="13.89" length="5.59" shape="1770.88,1805.79 1769.21,1811.04"/>
        <lane id=":1016578323_0_1" index="1" disallow="tram rail_urban rail rail_electric rail_fast ship container cable_car subway aircraft wheelchair scooter drone" speed="13.89" length="5.59" shape="1767.84,1804.80 1766.15,1810.10"/>
        <lane id=":1016578323_0_2" index="2" disallow="tram rail_urban rail rail_electric rail_fast ship container cable_car subway aircraft wheelchair scooter drone" speed="13.89" length="5.59" shape="1764.80,1803.81 1763.10,1809.16"/>
        <lane id=":1016578323_0_3" index="3" disallow="tram rail_urban rail rail_electric rail_fast ship container cable_car subway aircraft wheelchair scooter drone" speed="13.89" length="5.59" shape="1761.75,1802.81 1760.04,1808.22"/>
    </edge>
    <edge id=":1016578427_0" function="internal">
        <lane id=":1016578427_0_0" index="0" disallow="tram rail_urban rail rail_electric rail_fast ship container cable_car subway aircraft wheelchair scooter drone" speed="13.89" length="5.24" shape="1750.32,1870.80 1748.76,1875.74"/>
        <lane id=":1016578427_0_1" index="1" disallow="tram rail_urban rail rail_electric rail_fast ship container cable_car subway aircraft wheelchair scooter drone" speed="13.89" length="5.24" shape="1747.28,1869.82 1745.70,1874.79"/>
        <lane id=":1016578427_0_2" index="2" disallow="tram rail_urban rail rail_electric rail_fast ship container cable_car subway aircraft wheelchair scooter drone" speed="13.89" length="5.24" shape="1744.23,1868.83 1742.65,1873.84"/>
        <lane id=":1016578427_0_3" index="3" disallow="tram rail_urban rail rail_electric rail_fast ship container cable_car subway aircraft wheelchair scooter drone" speed="13.89" length="5.24" shape="1741.19,1867.85 1739.59,1872.88"/>
    </edge>
    <edge id=":11831464811_0" function="internal">
        <lane id=":11831464811_0_0" index="0" disallow="tram rail_urban rail rail_electric rail_fast ship container cable_car subway aircraft wheelchair scooter drone" speed="8.33" length="0.29" shape="1770.23,3114.91 1770.21,3114.83 1770.20,3114.78 1770.19,3114.72 1770.18,3114.63"/>
    </edge>
    <edge id=":11832663689_0" function="internal">
        <lane id=":11832663689_0_0" index="0" disallow="tram rail_urban rail rail_electric rail_fast ship container cable_car subway aircraft wheelchair scooter drone" speed="8.33" length="0.24" shape="1769.93,3112.19 1769.91,3111.95"/>
    </edge>
    <edge id=":11933906299_0" function="internal">
        <lane id=":11933906299_0_0" index="0" allow="pedestrian delivery bicycle" speed="5.56" length="5.17" shape="1318.68,2573.41 1313.52,2573.45"/>
    </edge>
    <edge id=":11933906299_1" function="internal">
        <lane id=":11933906299_1_0" index="0" allow="pedestrian delivery bicycle" speed="3.65" length="1.44" shape="1318.68,2573.41 1317.48,2572.62"/>
    </edge>
    <edge id=":11933906299_4" function="internal">
        <lane id=":11933906299_4_0" index="0" allow="pedestrian delivery bicycle" speed="3.65" length="3.23" shape="1317.48,2572.62 1317.07,2571.82 1317.46,2571.02 1318.66,2570.21"/>
    </edge>
    <edge id=":11933906299_2" function="internal">
        <lane id=":11933906299_2_0" index="0" allow="pedestrian delivery bicycle" speed="5.56" length="5.17" shape="1313.49,2570.25 1318.66,2570.21"/>
    </edge>
    <edge id=":11933906299_3" function="internal">
        <lane id=":11933906299_3_0" index="0" allow="pedestrian delivery bicycle" speed="3.65" length="1.44" shape="1313.49,2570.25 1314.70,2571.04"/>
    </edge>
    <edge id=":11933906299_5" function="internal">
        <lane id=":11933906299_5_0" index="0" allow="pedestrian delivery bicycle" speed="3.65" length="3.23" shape="1314.70,2571.04 1315.10,2571.84 1314.71,2572.64 1313.52,2573.45"/>
    </edge>
    <edge id=":12022948922_0" function="internal">
        <lane id=":12022948922_0_0" index="0" disallow="tram rail_urban rail rail_electric rail_fast ship container cable_car subway aircraft wheelchair scooter drone" speed="8.33" length="0.10" shape="1900.77,3099.82 1900.77,3099.82"/>
    </edge>
    <edge id=":12031501312_0" function="internal">
        <lane id=":12031501312_0_0" index="0" disallow="tram rail_urban rail rail_electric rail_fast ship container cable_car subway aircraft wheelchair scooter drone" speed="13.89" length="4.85" shape="2099.72,2029.31 2100.07,2034.15"/>
    </edge>
    <edge id=":12031501313_0" function="internal">
        <lane id=":12031501313_0_0" index="0" disallow="tram rail_urban rail rail_electric rail_fast ship container cable_car subway aircraft wheelchair scooter drone" speed="8.33" length="3.57" shape="1818.97,2032.60 1815.40,2032.69"/>
    </edge>
    <edge id=":1203847114_0" function="internal">
        <lane id=":1203847114_0_0" index="0" disallow="tram rail_urban rail rail_electric rail_fast ship container cable_car subway aircraft wheelchair scooter drone" speed="13.89" length="0.30" shape="1500.57,2649.74 1500.49,2650.00"/>
        <lane id=":1203847114_0_1" index="1" disallow="tram rail_urban rail rail_electric rail_fast ship container cable_car subway aircraft wheelchair scooter drone" speed="13.89" length="0.30" shape="1497.53,2648.75 1497.44,2649.02"/>
        <lane id=":1203847114_0_2" index="2" disallow="tram rail_urban rail rail_electric rail_fast ship container cable_car subway aircraft wheelchair scooter drone" speed="13.89" length="0.30" shape="1494.49,2647.75 1494.39,2648.04"/>
        <lane id=":1203847114_0_3" index="3" disallow="tram rail_urban rail rail_electric rail_fast ship container cable_car subway aircraft wheelchair scooter drone" speed="13.89" length="0.30" shape="1491.45,2646.75 1491.35,2647.06"/>
    </edge>
    <edge id=":1203847117_0" function="internal">
        <lane id=":1203847117_0_0" index="0" disallow="tram rail_urban rail rail_electric rail_fast ship container cable_car subway aircraft wheelchair scooter drone" speed="22.22" length="5.44" shape="1290.18,2645.88 1284.68,2646.16"/>
        <lane id=":1203847117_0_1" index="1" disallow="tram rail_urban rail rail_electric rail_fast ship container cable_car subway aircraft wheelchair scooter drone" speed="22.22" length="5.44" shape="1289.99,2642.69 1284.54,2642.97"/>
        <lane id=":1203847117_0_2" index="2" disallow="tram rail_urban rail rail_electric rail_fast ship container cable_car subway aircraft wheelchair scooter drone" speed="22.22" length="5.44" shape="1289.81,2639.49 1284.40,2639.77"/>
        <lane id=":1203847117_0_3" index="3" disallow="tram rail_urban rail rail_electric rail_fast ship container cable_car subway aircraft wheelchair scooter drone" speed="22.22" length="5.44" shape="1289.62,2636.30 1284.26,2636.57"/>
    </edge>
    <edge id=":1203847126_0" function="internal">
        <lane id=":1203847126_0_0" index="0" disallow="tram rail_urban rail rail_electric rail_fast ship container cable_car subway aircraft wheelchair scooter drone" speed="22.22" length="4.77" shape="1520.18,2628.58 1515.50,2628.91"/>
        <lane id=":1203847126_0_1" index="1" disallow="tram rail_urban rail rail_electric rail_fast ship container cable_car subway aircraft wheelchair scooter drone" speed="22.22" length="4.77" shape="1519.98,2625.38 1515.25,2625.72"/>
        <lane id=":1203847126_0_2" index="2" disallow="tram rail_urban rail rail_electric rail_fast ship container cable_car subway aircraft wheelchair scooter drone" speed="22.22" length="4.77" shape="1519.77,2622.19 1514.99,2622.53"/>
        <lane id=":1203847126_0_3" index="3" disallow="tram rail_urban rail rail_electric rail_fast ship container cable_car subway aircraft wheelchair scooter drone" speed="22.22" length="4.77" shape="1519.56,2619.00 1514.74,2619.34"/>
    </edge>
    <edge id=":1203847134_0" function="internal">
        <lane id=":1203847134_0_0" index="0" disallow="tram rail_urban rail rail_electric rail_fast ship container cable_car subway aircraft wheelchair scooter drone" speed="22.22" length="5.56" shape="1246.58,2649.79 1245.21,2650.56 1244.30,2651.14 1243.45,2651.80 1242.28,2652.84"/>
        <lane id=":1203847134_0_1" index="1" disallow="tram rail_urban rail rail_electric rail_fast ship container cable_car subway aircraft wheelchair scooter drone" speed="22.22" length="5.56" shape="1245.01,2647.00 1243.50,2647.85 1242.49,2648.48 1241.55,2649.21 1240.26,2650.35"/>
    </edge>
    <edge id=":1203847155_0" function="internal">
        <lane id=":1203847155_0_0" index="0" allow="pedestrian delivery bicycle" speed="5.56" length="5.13" shape="1292.55,2662.69 1287.43,2663.05"/>
    </edge>
    <edge id=":1203847155_1" function="internal">
        <lane id=":1203847155_1_0" index="0" allow="pedestrian delivery bicycle" speed="3.65" length="1.44" shape="1292.55,2662.69 1291.30,2661.98"/>
    </edge>
    <edge id=":1203847155_4" function="internal">
        <lane id=":1203847155_4_0" index="0" allow="pedestrian delivery bicycle" speed="3.65" length="3.23" shape="1291.30,2661.98 1290.84,2661.21 1291.19,2660.38 1292.33,2659.50"/>
    </edge>
    <edge id=":1203847155_2" function="internal">
        <lane id=":1203847155_2_0" index="0" allow="pedestrian delivery bicycle" speed="5.56" length="5.14" shape="1287.20,2659.86 1292.33,2659.50"/>
    </edge>
    <edge id=":1203847155_3" function="internal">
        <lane id=":1203847155_3_0" index="0" allow="pedestrian delivery bicycle" speed="3.65" length="1.44" shape="1287.20,2659.86 1288.46,2660.57"/>
    </edge>
    <edge id=":1203847155_5" function="internal">
        <lane id=":1203847155_5_0" index="0" allow="pedestrian delivery bicycle" speed="3.65" length="3.23" shape="1288.46,2660.57 1288.91,2661.34 1288.57,2662.17 1287.43,2663.05"/>
    </edge>
    <edge id=":1203847161_0" function="internal">
        <lane id=":1203847161_0_0" index="0" disallow="tram rail_urban rail rail_electric rail_fast ship container cable_car subway aircraft wheelchair scooter drone" speed="13.89" length="3.19" shape="1291.68,2612.63 1294.91,2612.44"/>
        <lane id=":1203847161_0_1" index="1" disallow="tram rail_urban rail rail_electric rail_fast ship container cable_car subway aircraft wheelchair scooter drone" speed="13.89" length="3.19" shape="1291.89,2615.83 1295.02,2615.64"/>
    </edge>
    <edge id=":1203847162_0" function="internal">
        <lane id=":1203847162_0_0" index="0" disallow="tram rail_urban rail rail_electric rail_fast ship container cable_car subway aircraft wheelchair scooter drone" speed="13.89" length="4.40" shape="1299.79,2654.53 1299.63,2650.01"/>
        <lane id=":1203847162_0_1" index="1" disallow="tram rail_urban rail rail_electric rail_fast ship container cable_car subway aircraft wheelchair scooter drone" speed="13.89" length="4.40" shape="1302.98,2654.40 1302.83,2649.94"/>
        <lane id=":1203847162_0_2" index="2" disallow="tram rail_urban rail rail_electric rail_fast ship container cable_car subway aircraft wheelchair scooter drone" speed="13.89" length="4.40" shape="1306.18,2654.27 1306.03,2649.87"/>
        <lane id=":1203847162_0_3" index="3" disallow="tram rail_urban rail rail_electric rail_fast ship container cable_car subway aircraft wheelchair scooter drone" speed="13.89" length="4.40" shape="1309.38,2654.14 1309.23,2649.79"/>
        <lane id=":1203847162_0_4" index="4" disallow="tram rail_urban rail rail_electric rail_fast ship container cable_car subway aircraft wheelchair scooter drone" speed="13.89" length="4.40" shape="1312.58,2654.00 1312.43,2649.72"/>
    </edge>
    <edge id=":1203847202_0" function="internal">
        <lane id=":1203847202_0_0" index="0" disallow="tram rail_urban rail rail_electric rail_fast ship container cable_car subway aircraft wheelchair scooter drone" speed="22.22" length="7.89" shape="1488.44,2630.85 1480.52,2631.51"/>
        <lane id=":1203847202_0_1" index="1" disallow="tram rail_urban rail rail_electric rail_fast ship container cable_car subway aircraft wheelchair scooter drone" speed="22.22" length="7.89" shape="1488.15,2627.66 1480.27,2628.32"/>
        <lane id=":1203847202_0_2" index="2" disallow="tram rail_urban rail rail_electric rail_fast ship container cable_car subway aircraft wheelchair scooter drone" speed="22.22" length="7.89" shape="1487.86,2624.47 1480.01,2625.13"/>
        <lane id=":1203847202_0_3" index="3" disallow="tram rail_urban rail rail_electric rail_fast ship container cable_car subway aircraft wheelchair scooter drone" speed="22.22" length="7.89" shape="1487.56,2621.29 1479.76,2621.94"/>
    </edge>
    <edge id=":1203847225_0" function="internal">
        <lane id=":1203847225_0_0" index="0" disallow="tram rail_urban rail rail_electric rail_fast ship container cable_car subway aircraft wheelchair scooter drone" speed="13.89" length="4.29" shape="1299.09,2624.65 1298.98,2620.46"/>
        <lane id=":1203847225_0_1" index="1" disallow="tram rail_urban rail rail_electric rail_fast ship container cable_car subway aircraft wheelchair scooter drone" speed="13.89" length="4.29" shape="1302.29,2624.59 1302.18,2620.35"/>
        <lane id=":1203847225_0_2" index="2" disallow="tram rail_urban rail rail_electric rail_fast ship container cable_car subway aircraft wheelchair scooter drone" speed="13.89" length="4.29" shape="1305.49,2624.52 1305.38,2620.23"/>
        <lane id=":1203847225_0_3" index="3" disallow="tram rail_urban rail rail_electric rail_fast ship container cable_car subway aircraft wheelchair scooter drone" speed="13.89" length="4.29" shape="1308.69,2624.45 1308.58,2620.11"/>
        <lane id=":1203847225_0_4" index="4" disallow="tram rail_urban rail rail_electric rail_fast ship container cable_car subway aircraft wheelchair scooter drone" speed="13.89" length="4.29" shape="1311.89,2624.39 1311.77,2619.99"/>
    </edge>
    <edge id=":1203847229_0" function="internal">
        <lane id=":1203847229_0_0" index="0" disallow="tram rail_urban rail rail_electric rail_fast ship container cable_car subway aircraft wheelchair scooter drone" speed="22.22" length="6.32" shape="1326.55,2643.84 1320.09,2644.27"/>
        <lane id=":1203847229_0_1" index="1" disallow="tram rail_urban rail rail_electric rail_fast ship container cable_car subway aircraft wheelchair scooter drone" speed="22.22" length="6.32" shape="1326.29,2640.65 1319.93,2641.07"/>
        <lane id=":1203847229_0_2" index="2" disallow="tram rail_urban rail rail_electric rail_fast ship container cable_car subway aircraft wheelchair scooter drone" speed="22.22" length="6.32" shape="1326.04,2637.47 1319.78,2637.88"/>
        <lane id=":1203847229_0_3" index="3" disallow="tram rail_urban rail rail_electric rail_fast ship container cable_car subway aircraft wheelchair scooter drone" speed="22.22" length="6.32" shape="1325.78,2634.28 1319.62,2634.68"/>
    </edge>
    <edge id=":12095125499_0" function="internal">
        <lane id=":12095125499_0_0" index="0" allow="pedestrian delivery bicycle" speed="5.56" length="4.75" shape="2108.26,2682.99 2103.60,2683.92"/>
    </edge>
    <edge id=":12095125499_1" function="internal">
        <lane id=":12095125499_1_0" index="0" allow="pedestrian delivery bicycle" speed="3.65" length="1.44" shape="2108.26,2682.99 2106.93,2682.44"/>
    </edge>
    <edge id=":12095125499_4" function="internal">
        <lane id=":12095125499_4_0" index="0" allow="pedestrian delivery bicycle" speed="3.65" length="3.23" shape="2106.93,2682.44 2106.38,2681.73 2106.62,2680.87 2107.64,2679.85"/>
    </edge>
    <edge id=":12095125499_2" function="internal">
        <lane id=":12095125499_2_0" index="0" allow="pedestrian delivery bicycle" speed="5.56" length="4.76" shape="2102.97,2680.78 2107.64,2679.85"/>
    </edge>
    <edge id=":12095125499_3" function="internal">
        <lane id=":12095125499_3_0" index="0" allow="pedestrian delivery bicycle" speed="3.65" length="1.44" shape="2102.97,2680.78 2104.31,2681.33"/>
    </edge>
    <edge id=":12095125499_5" function="internal">
        <lane id=":12095125499_5_0" index="0" allow="pedestrian delivery bicycle" speed="3.65" length="3.23" shape="2104.31,2681.33 2104.86,2682.04 2104.62,2682.90 2103.60,2683.92"/>
    </edge>
    <edge id=":12127494824_0" function="internal">
        <lane id=":12127494824_0_0" index="0" allow="subway" speed="27.78" length="0.10" shape="1389.80,3735.23 1389.80,3735.23"/>
    </edge>
    <edge id=":12127494825_0" function="internal">
        <lane id=":12127494825_0_0" index="0" allow="subway" speed="27.78" length="0.23" shape="1385.95,3706.95 1385.92,3706.71"/>
    </edge>
    <edge id=":12127494826_0" function="internal">
        <lane id=":12127494826_0_0" index="0" allow="subway" speed="27.78" length="0.23" shape="1385.07,3698.14 1385.04,3697.91"/>
    </edge>
    <edge id=":12198834903_0" function="internal">
        <lane id=":12198834903_0_0" index="0" disallow="tram rail_urban rail rail_electric rail_fast ship container cable_car subway aircraft wheelchair scooter drone" speed="8.33" length="5.12" shape="1454.25,2067.23 1449.17,2067.90"/>
    </edge>
    <edge id=":12320269215_0" function="internal">
        <lane id=":12320269215_0_0" index="0" allow="pedestrian delivery bicycle" speed="4.67" length="4.17" shape="1297.56,2585.38 1297.41,2584.02 1297.00,2583.06 1296.36,2582.50 1295.47,2582.33"/>
    </edge>
    <edge id=":12320269215_1" function="internal">
        <lane id=":12320269215_1_0" index="0" disallow="tram rail_urban rail rail_electric rail_fast ship container cable_car subway aircraft wheelchair scooter drone" speed="13.89" length="8.85" shape="1297.56,2585.38 1297.33,2576.59"/>
        <lane id=":12320269215_1_1" index="1" disallow="tram rail_urban rail rail_electric rail_fast ship container cable_car subway aircraft wheelchair scooter drone" speed="13.89" length="8.85" shape="1300.76,2585.31 1300.53,2576.49"/>
        <lane id=":12320269215_1_2" index="2" disallow="tram rail_urban rail rail_electric rail_fast ship container cable_car subway aircraft wheelchair scooter drone" speed="13.89" length="8.85" shape="1303.96,2585.24 1303.73,2576.39"/>
        <lane id=":12320269215_1_3" index="3" disallow="tram rail_urban rail rail_electric rail_fast ship container cable_car subway aircraft wheelchair scooter drone" speed="13.89" length="8.85" shape="1307.16,2585.16 1306.93,2576.29"/>
        <lane id=":12320269215_1_4" index="4" disallow="tram rail_urban rail rail_electric rail_fast ship container cable_car subway aircraft wheelchair scooter drone" speed="13.89" length="8.85" shape="1310.36,2585.09 1310.12,2576.19"/>
    </edge>
    <edge id=":12320269215_6" function="internal">
        <lane id=":12320269215_6_0" index="0" allow="pedestrian delivery bicycle" speed="4.45" length="3.66" shape="1295.36,2579.13 1296.25,2578.95 1296.88,2578.46 1297.24,2577.68 1297.33,2576.59"/>
        <lane id=":12320269215_6_1" index="1" allow="pedestrian delivery bicycle" speed="5.59" length="6.39" shape="1295.36,2579.13 1297.65,2578.90 1299.27,2578.38 1300.23,2577.58 1300.53,2576.49"/>
    </edge>
    <edge id=":12320269215_8" function="internal">
        <lane id=":12320269215_8_0" index="0" allow="pedestrian delivery bicycle" speed="3.65" length="4.67" shape="1295.36,2579.13 1296.59,2579.89 1297.01,2580.68 1296.64,2581.49 1295.47,2582.33"/>
    </edge>
    <edge id=":12320269216_0" function="internal">
        <lane id=":12320269216_0_0" index="0" allow="pedestrian delivery bicycle" speed="5.56" length="3.98" shape="1295.27,2582.34 1291.29,2582.59"/>
    </edge>
    <edge id=":12320269216_1" function="internal">
        <lane id=":12320269216_1_0" index="0" allow="pedestrian delivery bicycle" speed="3.65" length="1.44" shape="1295.27,2582.34 1294.04,2581.58"/>
    </edge>
    <edge id=":12320269216_4" function="internal">
        <lane id=":12320269216_4_0" index="0" allow="pedestrian delivery bicycle" speed="3.65" length="3.23" shape="1294.04,2581.58 1293.61,2580.79 1293.99,2579.98 1295.16,2579.14"/>
    </edge>
    <edge id=":12320269216_2" function="internal">
        <lane id=":12320269216_2_0" index="0" allow="pedestrian delivery bicycle" speed="5.56" length="4.13" shape="1291.04,2579.40 1295.16,2579.14"/>
    </edge>
    <edge id=":12320269216_3" function="internal">
        <lane id=":12320269216_3_0" index="0" allow="pedestrian delivery bicycle" speed="3.65" length="1.44" shape="1291.04,2579.40 1292.30,2580.10"/>
    </edge>
    <edge id=":12320269216_5" function="internal">
        <lane id=":12320269216_5_0" index="0" allow="pedestrian delivery bicycle" speed="3.65" length="3.23" shape="1292.30,2580.10 1292.76,2580.87 1292.42,2581.70 1291.29,2582.59"/>
    </edge>
    <edge id=":12320269217_0" function="internal">
        <lane id=":12320269217_0_0" index="0" allow="pedestrian delivery bicycle" speed="5.56" length="0.36" shape="1288.87,2582.78 1288.51,2582.79"/>
    </edge>