<?xml version="1.0" encoding="UTF-8"?>

<!-- generated on 2026-02-11 14:58:04 by Eclipse SUMO polyconvert Version 1.22.0
<polyconvertConfiguration xmlns:xsi="http://www.w3.org/2001/XMLSchema-instance" xsi:noNamespaceSchemaLocation="http://sumo.dlr.de/xsd/polyconvertConfiguration.xsd">

    <input>
        <net-file value="map.net.xml"/>
        <osm-files value="mapa.osm"/>
    </input>

    <output>
        <output-file value="map.poly.xml"/>
    </output>

</polyconvertConfiguration>
-->

<additional xmlns:xsi="http://www.w3.org/2001/XMLSchema-instance" xsi:noNamespaceSchemaLocation="http://sumo.dlr.de/xsd/additional_file.xsd">
    <location netOffset="-438981.34,-4474429.74" convBoundary="-0.00,0.00,3132.37,4130.02" origBoundary="-3.719495,40.418316,-3.682520,40.455568" projParameter="+proj=utm +zone=30 +ellps=WGS84 +datum=WGS84 +units=m +no_defs"/>

    <poly id="1016671850" type="building" color="255,230,230" fill="1" layer="-1.00" shape="1383.962178,2011.349301 1406.967210,2010.511276 1411.598492,1996.665158 1402.571099,1993.151462 1396.720722,1993.431133 1391.684216,1993.659928 1386.274877,1993.936097 1383.018866,1994.073021 1383.962178,2011.349301"/>
    <poly id="1019175228" type="building" color="255,230,230" fill="1" layer="-1.00" shape="1830.471283,1746.065379 1835.102818,1732.130739 1837.662756,1724.395544 1809.061903,1714.930612 1804.879473,1727.729450 1801.988809,1736.544036 1821.022516,1742.909728 1830.471283,1746.065379"/>
    <poly id="1019175229" type="building" color="255,230,230" fill="1" layer="-1.00" shape="1801.988809,1736.544036 1798.643323,1746.838609 1796.084311,1754.684818 1814.614046,1760.610450 1815.311391,1760.838054 1821.022516,1742.909728 1801.988809,1736.544036"/>
    <poly id="1019175230" type="building" color="255,230,230" fill="1" layer="-1.00" shape="1792.348974,1766.092544 1794.021926,1760.973006 1796.084311,1754.684818 1814.614046,1760.610450 1813.167604,1764.340608 1815.140896,1765.024358 1812.920564,1770.647748 1811.014777,1769.919062 1809.517975,1773.716224 1792.348974,1766.092544"/>
    <poly id="1019694526" type="building" color="255,230,230" fill="1" layer="-1.00" shape="1786.949142,1827.677425 1801.160691,1828.164523 1808.762730,1828.415261 1809.071489,1814.892187 1809.158654,1810.895252 1809.156548,1810.628853 1780.862641,1801.328117 1777.414765,1812.611472 1779.928920,1815.189154 1785.795893,1824.500645 1786.949142,1827.677425"/>
    <poly id="1019694527" type="building" color="255,230,230" fill="1" layer="-1.00" shape="1808.762730,1828.415261 1814.734971,1828.512374 1819.612900,1828.595938 1820.015504,1815.138728 1818.021867,1815.098977 1818.100292,1811.068810 1820.085623,1811.130828 1820.331651,1802.548055 1816.232505,1801.192859 1816.160318,1802.791928 1809.347929,1802.645949 1809.156548,1810.628853 1809.158654,1810.895252 1811.152291,1810.935001 1811.082089,1814.931802 1809.071489,1814.892187 1808.762730,1828.415261"/>
    <poly id="1019694528" type="building" color="255,230,230" fill="1" layer="-1.00" shape="1809.156548,1810.628853 1780.862641,1801.328117 1787.719910,1780.326912 1808.283300,1787.069002 1805.226092,1796.273429 1801.799013,1795.168244 1801.111173,1797.216207 1802.310429,1797.628554 1802.028104,1798.396733 1806.093064,1799.718889 1805.920124,1800.375197 1806.821641,1800.678891 1807.634690,1798.374624 1806.639699,1798.049467 1810.077680,1787.654259 1817.111098,1790.007529 1820.623521,1791.178650 1820.539331,1795.552984 1820.331651,1802.548055 1816.232505,1801.192859 1809.428805,1798.926580 1809.347929,1802.645949 1809.156548,1810.628853"/>
    <poly id="1019694529" type="building" color="255,230,230" fill="1" layer="-1.00" shape="1798.999409,1787.597504 1802.851455,1788.810335 1802.279727,1790.524359 1798.469914,1789.288993 1798.999409,1787.597504"/>
    <poly id="1019694530" type="building" color="255,230,230" fill="1" layer="-1.00" shape="1792.348974,1766.092544 1790.063204,1773.092943 1787.719910,1780.326912 1808.283300,1787.069002 1810.077680,1787.654259 1817.111098,1790.007529 1819.665898,1784.847726 1819.197737,1784.640512 1820.287531,1781.934435 1822.141860,1777.224195 1822.507514,1776.266648 1818.006555,1774.515000 1812.288670,1772.262340 1811.390799,1774.567277 1809.517975,1773.716224 1792.348974,1766.092544"/>
    <poly id="1019694531" type="building" color="255,230,230" fill="1" layer="-1.00" shape="1808.138022,1775.125815 1807.392122,1777.340746 1810.181324,1778.228960 1810.927049,1775.991829 1808.138022,1775.125815"/>
    <poly id="1019694532" type="building" color="255,230,230" fill="1" layer="-1.00" shape="1841.554246,1767.113533 1851.288135,1766.637034 1852.598487,1810.119160 1840.586738,1810.003112 1841.554246,1767.113533"/>
    <poly id="1019694533" type="building" color="255,230,230" fill="1" layer="-1.00" shape="1822.544838,1805.683163 1829.254654,1805.730059 1829.119634,1809.039129 1822.495164,1809.058163 1822.544838,1805.683163"/>
    <poly id="1019694534" type="leisure" color="207,245,201" fill="1" layer="-2.00" shape="1910.322530,1769.578983 1878.204536,1770.132152 1877.787504,1746.313383 1921.594004,1745.734615 1922.304847,1767.031213 1913.425523,1768.311228 1910.307131,1768.702151 1910.322530,1769.578983"/>
    <poly id="1019694534#1" type="sport" color="79,230,125" fill="1" layer="-2.00" shape="1910.322530,1769.578983 1878.204536,1770.132152 1877.787504,1746.313383 1921.594004,1745.734615 1922.304847,1767.031213 1913.425523,1768.311228 1910.307131,1768.702151 1910.322530,1769.578983"/>
    <poly id="1019694535" type="leisure" color="207,245,201" fill="1" layer="-2.00" shape="1921.594004,1745.734615 1951.727368,1745.197280 1952.420349,1762.087050 1941.642765,1763.592909 1931.607824,1765.692364 1922.304847,1767.031213 1921.594004,1745.734615"/>
    <poly id="1019694535#1" type="sport" color="79,230,125" fill="1" layer="-2.00" shape="1921.594004,1745.734615 1951.727368,1745.197280 1952.420349,1762.087050 1941.642765,1763.592909 1931.607824,1765.692364 1922.304847,1767.031213 1921.594004,1745.734615"/>
    <poly id="1019694536" type="leisure" color="207,245,201" fill="1" layer="-2.00" shape="1951.727368,1745.197280 1978.257811,1741.691273 1980.432066,1758.191949 1952.420349,1762.087050 1951.727368,1745.197280"/>
    <poly id="1019694536#1" type="sport" color="79,230,125" fill="1" layer="-2.00" shape="1951.727368,1745.197280 1978.257811,1741.691273 1980.432066,1758.191949 1952.420349,1762.087050 1951.727368,1745.197280"/>
    <poly id="1052814768" type="building" color="255,230,230" fill="1" layer="-1.00" shape="1716.951548,1903.460490 1713.913839,1912.964523 1708.129793,1914.131479 1707.387857,1911.484288 1709.519856,1910.790268 1708.579023,1906.590555 1716.951548,1903.460490"/>
    <poly id="1091886366" type="building" color="255,230,230" fill="1" layer="-1.00" shape="1396.280821,2004.235613 1400.192462,2005.481065 1399.462875,2007.596004 1395.576238,2006.294850 1396.280821,2004.235613"/>
    <poly id="1091886367" type="building" color="255,230,230" fill="1" layer="-1.00" shape="1398.906117,1996.255520 1402.766519,1997.456978 1401.822506,2000.339571 1398.003276,1998.982376 1398.906117,1996.255520"/>
    <poly id="1091886368" type="building" color="255,230,230" fill="1" layer="-1.00" shape="1393.522399,1999.750683 1388.290292,1999.914433 1388.206096,1997.861473 1393.657751,1997.573868 1394.095696,1998.247526 1393.522399,1999.750683"/>
    <poly id="1091886369" type="building" color="255,230,230" fill="1" layer="-1.00" shape="1391.087679,2007.163126 1388.661799,2007.160232 1388.562583,2004.285941 1392.014193,2004.214066 1391.087679,2007.163126"/>
    <poly id="1091886370" type="building" color="255,230,230" fill="1" layer="-1.00" shape="1319.228627,2010.432866 1319.151124,2008.157840 1323.060379,2008.037884 1323.077538,2010.191283 1319.228627,2010.432866"/>
    <poly id="1091886371" type="building" color="255,230,230" fill="1" layer="-1.00" shape="1313.071308,2007.318234 1313.092903,2011.092300 1310.285977,2011.170174 1310.221619,2007.352045 1313.071308,2007.318234"/>
    <poly id="1091886372" type="building" color="255,230,230" fill="1" layer="-1.00" shape="1312.921185,2005.510016 1310.088989,2005.610292 1310.069262,2003.134993 1311.087305,2003.160182 1311.091905,2003.737382 1312.922845,2003.589582 1312.921185,2005.510016"/>
    <poly id="1091886373" type="building" color="255,230,230" fill="1" layer="-1.00" shape="1318.470128,1988.692637 1318.478147,1986.505735 1322.327424,1986.308552 1322.345290,1988.550752 1318.470128,1988.692637"/>
    <poly id="1091886374" type="building" color="255,230,230" fill="1" layer="-1.00" shape="1312.491409,1992.026089 1312.615490,1995.888144 1309.757226,1995.910924 1309.659473,1992.159666 1312.491409,1992.026089"/>
    <poly id="1091886375" type="building" color="255,230,230" fill="1" layer="-1.00" shape="1309.611127,1990.350637 1309.478387,1986.466450 1312.336034,1986.365970 1312.468508,1990.216858 1309.611127,1990.350637"/>
    <poly id="1091886376" type="building" color="255,230,230" fill="1" layer="-1.00" shape="1351.639103,1994.544885 1351.495349,1992.470199 1355.082227,1992.341727 1355.165725,1994.305886 1351.639103,1994.544885"/>
    <poly id="1091886377" type="building" color="255,230,230" fill="1" layer="-1.00" shape="1352.145337,1975.036924 1352.024641,1972.662335 1353.745506,1972.537623 1353.951105,1974.922636 1352.145337,1975.036924"/>
    <poly id="1091886378" type="building" color="255,230,230" fill="1" layer="-1.00" shape="1351.001617,1984.792447 1350.871290,1982.273626 1354.389613,1982.056894 1354.511193,1984.542482 1351.001617,1984.792447"/>
    <poly id="1091886379" type="building" color="255,230,230" fill="1" layer="-1.00" shape="1337.225448,1985.690327 1336.998894,1981.740282 1339.025003,1981.602034 1339.251732,1985.574279 1337.225448,1985.690327"/>
    <poly id="1091886380" type="building" color="255,230,230" fill="1" layer="-1.00" shape="1312.153524,1979.429487 1312.129108,1976.365888 1312.908523,1976.248669 1313.035689,1979.433557 1312.153524,1979.429487"/>
    <poly id="1091886381" type="building" color="255,230,230" fill="1" layer="-1.00" shape="1326.126811,1978.785307 1318.165324,1979.181766 1318.166375,1978.249299 1326.127864,1977.852839 1326.126811,1978.785307"/>
    <poly id="1091886382" type="building" color="255,230,230" fill="1" layer="-1.00" shape="1387.929034,1982.233895 1384.503123,1982.338869 1384.401520,1980.230545 1387.784760,1980.092608 1387.929034,1982.233895"/>
    <poly id="1091886383" type="building" color="255,230,230" fill="1" layer="-1.00" shape="1389.386881,1982.100184 1389.242519,1979.947797 1392.795742,1979.852913 1392.736812,1982.040220 1389.386881,1982.100184"/>
    <poly id="1091886384" type="building" color="255,230,230" fill="1" layer="-1.00" shape="1388.901581,1974.411262 1388.750770,1971.448576 1392.980487,1971.092992 1393.089772,1974.167016 1388.901581,1974.411262"/>
    <poly id="1091886385" type="building" color="255,230,230" fill="1" layer="-1.00" shape="1383.323482,1974.799783 1383.189278,1971.792562 1387.403180,1971.581410 1387.528459,1974.533198 1383.323482,1974.799783"/>
    <poly id="1091886386" type="building" color="255,230,230" fill="1" layer="-1.00" shape="1375.801524,1973.938303 1371.935807,1974.202194 1371.825808,1972.105038 1375.784822,1971.840404 1375.801524,1973.938303"/>
    <poly id="1091886387" type="building" color="255,230,230" fill="1" layer="-1.00" shape="1346.191966,1899.555184 1332.808086,1899.672895 1332.726431,1896.876169 1331.581775,1860.730314 1331.921041,1860.727611 1331.889045,1858.840747 1336.009446,1858.597010 1338.441163,1894.466196 1353.445128,1894.346694 1353.459816,1899.386294 1346.191966,1899.555184"/>
    <poly id="1091886388" type="building" color="255,230,230" fill="1" layer="-1.00" shape="1340.005389,1862.961056 1342.240641,1860.323487 1357.144393,1859.327836 1357.306137,1876.443823 1353.884505,1876.027043 1351.601621,1875.878713 1349.779043,1876.015336 1349.755278,1876.226439 1348.763104,1876.256542 1348.897957,1882.538463 1355.005432,1882.578629 1352.835053,1890.166589 1341.810105,1890.398707 1340.005389,1862.961056"/>
    <poly id="1091886389" type="building" color="255,230,230" fill="1" layer="-1.00" shape="1369.703039,2006.978134 1338.506834,2008.125735 1338.390438,2002.032378 1369.418980,2000.064660 1369.703039,2006.978134"/>
    <poly id="1091886390" type="building" color="255,230,230" fill="1" layer="-1.00" shape="1319.965021,2030.463764 1316.402899,2030.503250 1316.272196,2026.874362 1319.817446,2026.846111 1319.965021,2030.463764"/>
    <poly id="1091886391" type="building" color="255,230,230" fill="1" layer="-1.00" shape="1376.585217,2052.136492 1373.870713,2049.971265 1373.556982,2046.787862 1377.302419,2046.336217 1378.895251,2047.178291 1379.027688,2048.897845 1377.743548,2050.606475 1376.585217,2052.136492"/>
    <poly id="1091886392" type="building" color="255,230,230" fill="1" layer="-1.00" shape="1370.466591,2059.200848 1365.661248,2059.694238 1365.063646,2054.947896 1369.910338,2054.320969 1370.466591,2059.200848"/>
    <poly id="1091886393" type="building" color="255,230,230" fill="1" layer="-1.00" shape="1315.723564,2072.979949 1313.571145,2073.230217 1313.439302,2070.522697 1315.490918,2070.395339 1315.723564,2072.979949"/>
    <poly id="1091886394" type="building" color="255,230,230" fill="1" layer="-1.00" shape="1319.682395,2068.441516 1319.659407,2066.621184 1321.694151,2066.505064 1321.835789,2068.313350 1319.682395,2068.441516"/>
    <poly id="11478825" type="building" color="255,230,230" fill="1" layer="-1.00" shape="2304.824799,2627.845233 2284.887002,2629.144915 2278.012497,2629.631749 2220.575765,2633.767826 2197.528170,2635.425173 2206.597179,2772.924793 2214.318805,2894.394527 2219.373497,2966.775759 2116.263681,2973.380530 2121.258762,3055.319890 2180.511444,3051.734856 2180.575734,3054.520626 2181.963691,3072.503949 2182.383389,3078.428424 2117.174711,3082.748530 2116.658997,3074.327156 2110.775878,3074.650946 2111.233546,3083.239286 2099.026872,3083.956947 2098.206373,3075.604577 2096.753875,3056.989033 2103.856510,3056.444726 2101.273306,3023.462674 2095.511316,3024.096341 2094.006429,3006.369267 2100.108257,3005.810630 2097.554561,2974.426850 2092.146265,2974.746917 2090.254540,2952.049776 2135.169586,2948.821438 2134.619180,2940.300431 2132.895837,2914.194046 2127.417192,2831.148431 2124.162196,2781.753741 2123.979420,2779.002206 2122.939662,2763.258500 2119.280512,2707.772716 2117.482691,2680.834376 2115.206193,2645.874002 2113.658440,2622.696833 2112.077583,2596.389530 2177.667863,2591.522531 2178.345694,2592.516268 2179.413032,2593.429241 2180.399422,2593.754513 2181.487818,2611.384956 2203.562023,2609.968319 2202.328634,2592.228005 2203.309706,2591.876180 2204.089967,2590.793287 2204.488156,2589.657891 2270.963418,2585.151084 2272.066669,2599.295804 2278.432616,2598.846255 2278.586974,2600.143825 2279.104874,2601.294235 2279.928083,2602.442250 2281.402137,2603.307645 2283.203634,2603.748647 2303.130060,2602.071628 2304.923899,2601.535835 2306.282085,2600.603832 2307.121117,2599.442784 2307.719815,2597.917298 2307.741558,2596.363032 2313.514809,2596.040266 2315.985617,2626.692091 2315.393094,2626.841044 2327.634081,2774.362030 2328.205846,2781.306580 2328.658056,2787.064293 2329.104611,2792.100505 2330.366686,2814.625010 2320.407689,2815.424597 2319.425802,2803.765470 2318.685374,2794.779716 2318.535505,2792.971478 2318.122690,2787.912800 2317.627200,2782.044420 2317.046597,2775.055538 2316.850235,2772.725933 2316.241318,2765.370950 2309.909932,2689.058954 2308.777101,2675.458393 2306.426488,2647.158971 2304.824799,2627.845233"/>
    <poly id="1158787959" type="building" color="255,230,230" fill="1" layer="-1.00" shape="1788.968137,2248.266547 1788.943978,2247.356481 1789.766479,2247.327777 1789.621095,2245.031083 1788.747882,2245.082390 1788.689973,2244.194792 1791.012771,2244.043219 1791.333164,2248.092438 1788.968137,2248.266547"/>
    <poly id="1158787960" type="building" color="255,230,230" fill="1" layer="-1.00" shape="1786.239033,2248.521240 1783.509051,2248.664933 1782.405805,2243.223217 1785.856516,2243.051623 1785.857601,2244.261590 1784.509089,2244.272252 1784.734054,2246.979042 1786.116227,2246.934812 1786.239033,2248.521240"/>
    <poly id="1158787961" type="building" color="255,230,230" fill="1" layer="-1.00" shape="1815.880835,2295.509267 1814.101987,2295.800843 1812.658413,2288.075070 1814.487536,2287.705392 1815.880835,2295.509267"/>
    <poly id="1158787962" type="building" color="255,230,230" fill="1" layer="-1.00" shape="1815.020404,2299.323605 1817.348771,2298.805673 1817.366228,2301.014573 1815.409452,2301.329756 1815.020404,2299.323605"/>
    <poly id="1158787963" type="building" color="255,230,230" fill="1" layer="-1.00" shape="1798.214168,2298.812606 1796.020623,2299.218471 1794.663949,2291.758430 1796.832140,2291.363866 1798.214168,2298.812606"/>
    <poly id="1158787964" type="building" color="255,230,230" fill="1" layer="-1.00" shape="1797.330181,2285.698575 1792.104853,2286.694545 1791.862259,2284.975856 1790.532472,2285.208384 1790.397883,2284.276989 1796.817565,2283.082864 1797.330181,2285.698575"/>
    <poly id="1158787965" type="building" color="255,230,230" fill="1" layer="-1.00" shape="1804.402417,2288.728662 1783.957606,2292.520223 1782.877528,2286.789705 1781.971459,2281.612846 1792.033919,2279.868180 1794.227206,2279.429014 1800.571089,2278.302095 1802.383339,2277.943648 1803.454396,2283.607636 1801.633403,2283.932850 1801.867163,2285.607206 1803.713160,2285.226291 1804.402417,2288.728662"/>
    <poly id="1158787966" type="building" color="255,230,230" fill="1" layer="-1.00" shape="1837.065766,2313.469302 1837.621398,2320.458348 1837.880842,2325.385006 1829.091452,2326.153792 1819.902136,2326.759239 1819.768663,2324.895378 1819.701987,2322.897780 1827.086146,2322.473107 1826.822687,2318.112616 1819.354590,2318.648960 1819.102589,2314.665803 1837.065766,2313.469302"/>
    <poly id="1158787967" type="building" color="255,230,230" fill="1" layer="-1.00" shape="1820.472219,2340.941419 1816.784609,2341.181475 1813.487480,2341.462849 1812.124457,2327.830870 1819.981799,2327.180436 1820.229934,2333.894394 1820.472219,2340.941419"/>
    <poly id="1158787968" type="building" color="255,230,230" fill="1" layer="-1.00" shape="1818.701479,2302.547017 1818.595938,2298.851320 1825.394571,2298.386870 1825.967692,2297.927213 1825.309382,2297.266374 1825.193399,2295.468978 1825.645855,2294.766059 1825.217412,2294.214410 1818.631155,2294.721584 1818.523772,2290.792788 1822.830181,2290.503441 1825.865206,2290.324049 1828.645446,2290.102269 1835.334709,2289.749699 1835.836827,2296.406147 1836.208544,2301.587234 1818.701479,2302.547017"/>
    <poly id="1180769609" type="leisure" color="207,245,201" fill="1" layer="-2.00" shape="974.105367,2700.558446 971.023518,2699.106756 972.256861,2696.377192 966.767165,2692.913374 965.050706,2691.450740 965.262420,2689.295502 965.010747,2686.466836 961.801083,2683.883900 963.491493,2681.039662 967.487107,2683.272175 969.654229,2683.820938 971.916205,2682.448516 972.586771,2680.400607 977.928736,2680.246778 979.875954,2681.929580 981.035059,2684.750973 983.212143,2686.542941 984.480606,2689.252451 983.598614,2692.434327 981.001058,2694.264565 978.045829,2694.854390 974.105367,2700.558446"/>
    <poly id="1180769610" type="leisure" color="207,245,201" fill="1" layer="-2.00" shape="987.539389,2701.583039 989.561443,2698.847157 990.113281,2696.800201 989.381272,2690.123433 990.043360,2688.075594 992.536097,2686.923343 997.205917,2687.563065 999.288224,2691.287323 999.325492,2695.938227 997.075047,2699.808210 992.331280,2703.698176 989.265805,2704.288880 987.539389,2701.583039"/>
    <poly id="1180769611" type="leisure" color="207,245,201" fill="1" layer="-2.00" shape="957.154145,2742.155557 954.417055,2741.389354 952.119671,2738.343977 951.394639,2733.598682 949.334419,2731.572671 946.166900,2733.185478 943.443338,2734.106481 940.690751,2731.408881 939.298120,2728.023230 939.494422,2723.947689 941.527314,2722.565995 945.412663,2724.799380 947.478316,2727.502490 949.992843,2729.069727 954.085356,2728.581778 956.115871,2725.845818 956.317612,2722.447379 956.061397,2719.052612 954.214463,2716.125731 952.386867,2714.552983 953.721969,2711.822599 951.888943,2709.572751 948.689253,2708.233023 946.420078,2708.706351 949.119971,2704.832747 952.299633,2703.674974 956.834428,2702.284321 960.468998,2701.800047 963.197914,2701.545052 963.900044,2704.492214 962.110540,2707.670269 964.392532,2708.795346 967.566677,2706.949379 968.910266,2704.218930 970.241727,2701.033449 972.305001,2702.382297 970.516178,2706.703718 973.715775,2708.032356 976.232172,2709.832702 978.074266,2713.214757 977.882775,2716.835128 975.852250,2719.571082 972.910050,2720.726942 967.435857,2719.194526 965.139362,2716.260145 959.917728,2717.667401 958.577705,2720.841852 958.606810,2724.471556 959.763247,2726.959946 962.745696,2729.766716 964.489380,2734.625953 966.239380,2740.273292 964.201568,2742.099048 960.776058,2740.095082 957.154145,2742.155557"/>
    <poly id="1180769613" type="leisure" color="207,245,201" fill="1" layer="-2.00" shape="1080.742255,2716.732865 1021.863533,2687.887251 1064.963734,2597.626316 1124.253305,2625.814047 1080.742255,2716.732865"/>
    <poly id="1180769613#1" type="sport" color="79,230,125" fill="1" layer="-2.00" shape="1080.742255,2716.732865 1021.863533,2687.887251 1064.963734,2597.626316 1124.253305,2625.814047 1080.742255,2716.732865"/>
    <poly id="1180769615" type="leisure" color="207,245,201" fill="1" layer="-2.00" shape="1120.687244,2714.415193 1091.597474,2700.738675 1113.243040,2655.318998 1142.142056,2669.518860 1120.687244,2714.415193"/>
    <poly id="1180769615#1" type="sport" color="79,230,125" fill="1" layer="-2.00" shape="1120.687244,2714.415193 1091.597474,2700.738675 1113.243040,2655.318998 1142.142056,2669.518860 1120.687244,2714.415193"/>
    <poly id="1180769619" type="leisure" color="207,245,201" fill="1" layer="-2.00" shape="1112.455837,2731.864750 1083.085101,2718.046203 1091.597474,2700.738675 1120.687244,2714.415193 1112.455837,2731.864750"/>
    <poly id="1180769619#1" type="sport" color="79,230,125" fill="1" layer="-2.00" shape="1112.455837,2731.864750 1083.085101,2718.046203 1091.597474,2700.738675 1120.687244,2714.415193 1112.455837,2731.864750"/>
    <poly id="1180769624" type="leisure" color="207,245,201" fill="1" layer="-2.00" shape="998.046173,2564.860064 1000.936975,2556.222743 1013.237183,2558.610759 1025.550185,2562.597197 1036.970211,2568.400222 1044.979054,2573.997460 1054.142444,2581.850011 1050.107875,2589.586209 1046.599111,2587.782682 1047.571638,2585.310536 1040.707633,2579.693028 1032.115037,2574.278080 1025.132120,2570.759573 1016.948116,2567.650320 1011.471954,2565.884771 1002.131486,2563.461942 1000.789637,2566.414384 998.046173,2564.860064"/>
    <poly id="122186423" type="tourism" color="207,245,201" fill="1" layer="-2.00" shape="2070.795045,2324.292315 2116.315054,2320.937068 2111.858800,2275.203989 2098.722692,2283.011170 2087.376909,2291.980964 2077.025232,2306.559900 2070.795045,2324.292315"/>
    <poly id="1225234097" type="building" color="255,230,230" fill="1" layer="-1.00" shape="1867.513830,1737.513939 1863.394558,1736.836017 1864.064017,1732.457063 1868.166766,1733.190619 1867.513830,1737.513939"/>
    <poly id="1225234098" type="building" color="255,230,230" fill="1" layer="-1.00" shape="1853.231384,1709.808402 1851.929361,1717.866677 1835.869319,1715.340454 1837.264537,1707.270338 1853.231384,1709.808402"/>
    <poly id="1225234099" type="building" color="255,230,230" fill="1" layer="-1.00" shape="1854.507276,1707.034257 1856.852712,1692.540450 1862.492360,1693.472781 1860.112898,1707.955754 1854.507276,1707.034257"/>
    <poly id="1225234100" type="building" color="255,230,230" fill="1" layer="-1.00" shape="1832.147957,1701.682709 1830.925347,1701.536957 1830.607709,1703.204569 1829.232164,1703.026724 1827.872881,1702.759945 1824.624670,1701.753243 1826.064115,1697.135088 1829.066530,1698.165934 1832.641323,1698.637225 1832.147957,1701.682709"/>
    <poly id="1273473610" type="parking" color="184,184,179" fill="1" layer="-1.00" shape="1601.953271,2695.085445 1598.575251,2693.702453 1601.294774,2732.888571 1604.748134,2734.148859 1601.953271,2695.085445"/>
    <poly id="1273473611" type="parking" color="184,184,179" fill="1" layer="-1.00" shape="1601.170858,2684.124155 1597.753599,2683.141100 1595.109932,2643.898880 1598.533786,2646.780103 1601.170858,2684.124155"/>
    <poly id="1273473612" type="parking" color="184,184,179" fill="1" layer="-1.00" shape="1597.495176,2732.885411 1595.681461,2733.044109 1588.668289,2635.868674 1590.804209,2635.696317 1597.495176,2732.885411"/>
    <poly id="1286684839" type="tourism" color="207,245,201" fill="1" layer="-2.00" shape="1321.769728,2284.611091 1325.806371,2289.851760 1327.279099,2348.007725 1325.722303,2349.552028 1325.919157,2351.903809 1327.550102,2353.278401 1331.817540,2446.035212 1331.889112,2447.566539 1332.700974,2465.365607 1332.781558,2466.963467 1335.459936,2525.287453 1330.806844,2525.690853 1327.809483,2527.390945 1323.909688,2527.599633 1321.687064,2526.473973 1317.048711,2525.534078 1310.396471,2314.496028 1309.987991,2301.555860 1309.384570,2284.376777 1311.505192,2282.272942 1313.922968,2284.462712 1318.772183,2286.300085 1319.853880,2285.803033 1321.769728,2284.611091"/>
    <poly id="1320076301" type="leisure" color="207,245,201" fill="1" layer="-2.00" shape="1677.887468,2468.339994 1685.367143,2468.214141 1685.299809,2463.996409 1677.820130,2464.122262 1677.887468,2468.339994"/>
    <poly id="1320076302" type="leisure" color="207,245,201" fill="1" layer="-2.00" shape="1918.513341,2408.924968 1932.353470,2399.024978 1931.032770,2397.181580 1929.270040,2398.438762 1917.184245,2407.092739 1918.513341,2408.924968"/>
    <poly id="1320076303" type="leisure" color="207,245,201" fill="1" layer="-2.00" shape="2035.522551,2405.416265 2054.875898,2404.142733 2054.577251,2399.604902 2035.223892,2400.878435 2035.522551,2405.416265"/>
    <poly id="1320076304" type="leisure" color="207,245,201" fill="1" layer="-2.00" shape="1565.227490,2684.142951 1573.475082,2683.555757 1573.093304,2678.197146 1564.845706,2678.784340 1565.227490,2684.142951"/>
    <poly id="1320076305" type="leisure" color="207,245,201" fill="1" layer="-2.00" shape="1566.439891,2700.118344 1574.695946,2699.531085 1574.314170,2694.172474 1566.058109,2694.759734 1566.439891,2700.118344"/>
    <poly id="1320763716" type="leisure" color="207,245,201" fill="1" layer="-2.00" shape="2111.780198,2480.922510 2119.536675,2480.406389 2119.412560,2477.565589 2111.571358,2478.093477 2111.780198,2480.922510"/>
    <poly id="1320763717" type="leisure" color="207,245,201" fill="1" layer="-2.00" shape="2119.486451,2508.535925 2123.156936,2508.285051 2122.239944,2496.292418 2118.662655,2496.531459 2119.486451,2508.535925"/>
    <poly id="132527585" type="landuse" color="194,194,130" fill="1" layer="-3.00" shape="1301.285673,1696.059770 1299.991006,1700.710180 1297.248945,1704.683883 1293.361387,1707.545548 1288.741728,1709.014364 1283.905852,1708.897507 1279.362931,1707.224220 1275.614807,1704.168111 1273.062867,1700.070102 1271.990555,1695.371957 1272.503726,1690.583464 1274.555563,1686.215630 1277.912383,1682.747649 1282.220869,1680.548661 1287.016465,1679.866589 1291.765341,1680.772291 1295.966270,1683.169857 1299.159018,1686.785437 1301.001304,1691.244334 1301.285673,1696.059770"/>
    <poly id="1335990681" type="tourism" color="207,245,201" fill="1" layer="-2.00" shape="990.405636,2565.010097 960.031811,2629.293633 951.082991,2648.203317 846.933452,2862.628348 846.727235,2863.351552 846.604486,2863.907575 846.523873,2864.429957 846.484859,2864.852098 846.473962,2865.607035 846.505289,2866.339432 846.621332,2867.060047 846.813165,2867.713449 847.072841,2868.366306 847.588717,2869.239119 848.059604,2869.790372 848.504157,2870.230830 849.076096,2870.692466 849.647501,2871.087502 851.010356,2871.820302 891.563339,2890.410280 902.502192,2895.484310 917.910293,2902.642731 932.441581,2909.397490 951.654808,2918.323771 978.836561,2931.038170 1012.640892,2946.807808 1045.613999,2962.584251 1046.957902,2963.073023 1048.258426,2963.440034 1050.159724,2963.635724 1051.966316,2963.654561 1054.101245,2963.371050 1055.843942,2962.824263 1058.108425,2961.773766 1059.948267,2960.648964 1061.389086,2959.471853 1062.305186,2958.432152 1063.177641,2957.237390 1064.248827,2955.441599 1108.358778,2863.263449 1159.292816,2756.744427 1165.507376,2743.740226 1182.900099,2707.368520 1211.796574,2646.938553 1212.959071,2640.635166 1210.354152,2637.303549 1071.033659,2570.791702 1040.213453,2556.107958 1013.420052,2543.323604 1009.821969,2542.020342 1008.181603,2541.589455 1006.542925,2541.369468 1005.330871,2541.467985 1004.085871,2541.688873 1002.876663,2542.142590 1001.738325,2542.973164 1000.864052,2543.945932 999.984232,2545.285067 990.405636,2565.010097"/>
    <poly id="1344915587" type="building" color="255,230,230" fill="1" layer="-1.00" shape="2098.262644,1703.592644 2093.261953,1704.087098 2092.812749,1698.740106 2097.746113,1698.312785 2098.262644,1703.592644"/>
    <poly id="1353122730" type="clinic" color="237,199,199" fill="1" layer="-2.00" shape="1886.519073,1654.297536 1886.482476,1657.184001 1886.464492,1659.204467 1886.437634,1664.399797 1886.440788,1664.799396 1886.340644,1669.307062 1886.375041,1671.515826 1886.345334,1673.125659 1886.301472,1681.540320 1895.007097,1682.959111 1903.704238,1684.377978 1903.787100,1674.453317 1903.883137,1669.423952 1903.958371,1664.983087 1903.960723,1664.206021 1904.087536,1658.776789 1904.139913,1651.438827 1901.801004,1650.646931 1901.791524,1654.820861 1896.514135,1654.651588 1893.731030,1654.540341 1892.695979,1654.515207 1886.519073,1654.297536"/>