<?xml version="1.0" encoding="UTF-8"?>
<configuration>
    <input>
        <net-file value="map.net.xml"/>
        <route-files value="test.rou2.xml"/>
        <additional-files value="map.poly.xml, edgedata.add.xml"/>
    </input>
    <time>
        <begin value="0"/>
        <end value="500"/>
    </time>
    <processing>
        <time-to-teleport value="-1"/>
    </processing>
</configuration>