# Example simulation for integrating veins (http://veins.car2x.org/) with Simu5G
# 
# Requirements:
#       You need to enable the feature "Simu5G Cars" for this simulation
#       (Project->Properties->OMNeT++->Project Features)
#
#       You need to import the "veins" project and its subproject
#       "veins_inet" in your workspace.
[General]
*.radioMedium.typename = "LteChannelControl"

**.gNodeB*.nicType = "NRNicEnb"
**.car[*].cellularNic.nicType = "NRNicUe"

cmdenv-express-mode = true
#cmdenv-express-setup = "mpiexec -n 4 sleep infinity"
# parallel-simulation = true
# parsim-num-partitions = 4
# parsim-communications-class = "cMPICommunications"
# parsim-synchronization-class = "cNullMessageProtocol"
# parsim-debug=false
# *.gNodeB[1..500]**.partition-id=0
# *.gNodeB[501..1000]**.partition-id=1
# *.gNodeB[1001..1355]**.partition-id=2
# **.partition-id=3

#**.tolerateMaxDistViolation_ = true


cmdenv-autoflush = true
image-path = ../../images
network = simu5g.simulations.NR.simple_Iker_FINAL.Highway

##########################################################
#            Simulation parameters                       #
##########################################################
debug-on-errors = false
print-undisposed = true

sim-time-limit = 1000s

##########################################################
# Result files configuration
##########################################################

result-dir = results
output-vector-file = ${resultdir}/output.vec
output-scalar-file = ${resultdir}/output.sca
record-eventlog = false

**.vector-recording = false
**.scalar-recording = true

*.playgroundSizeX = 20000m
*.playgroundSizeY = 20000m
*.playgroundSizeZ = 50m



#*.annotations.draw = true
#Obstaculos
*.obstacles.obstacles = xmldoc("config.xml", "//AnalogueModel[@type='RayleighObstacleShadowing']/obstacles")

##########################################################
#            VeinsManager parameters                     #
##########################################################
*.veinsManager.host = "localhost"       # if traci-launchd runs on localhost
*.veinsManager.moduleType = "simu5g.nodes.cars.NRCar"
*.veinsManager.moduleName = "car"
*.veinsManager.launchConfig = xmldoc("sumo.launchd.xml")
*.veinsManager.updateInterval = 0.1s

##########################################################
#                      Mobility                          #
##########################################################
*.car[*].mobility.typename = "VeinsInetMobility"


##########################################################
#          Mobile network specific parameters            #
##########################################################

*.radioMedium.pathLoss.typename = "RayleighFading"
**.propagationModel = "RayleighModel"
**.scenario = "URBAN_MACROCELL" # URBAN_MICROCELL

# Number of Resource Blocks
**.numBands = 200  # 100 200 400 800

# Transmission Power
**.ueTxPower = 26
**.eNodeBTxPower = 46

*.carrierAggregation.componentCarrier[*].numerologyIndex = 2
*.bgCell[*].bgScheduler.numerologyIndex = 2

# Enable dynamic association of UEs (based on best SINR)
*.car[*].cellularNic.nrPhy.dynamicCellAssociation = true
*.car[*].masterId = 0    # ignored if dynamic association is disabled
*.car[*].macCellId = 0    # ignored if dynamic association is disabled
*.car[*].nrMasterId = 1    # ignored if dynamic association is disabled
*.car[*].nrMacCellId = 1    # ignored if dynamic association is disabled

# eNodeB configuration
**.gNodeB1.macCellId = 1
**.gNodeB1.macNodeId = 1
**.gNodeB2.macCellId = 2
**.gNodeB2.macNodeId = 2
**.gNodeB3.macCellId = 3
**.gNodeB3.macNodeId = 3
**.gNodeB4.macCellId = 4
**.gNodeB4.macNodeId = 4
**.gNodeB5.macCellId = 5
**.gNodeB5.macNodeId = 5
**.gNodeB6.macCellId = 6
**.gNodeB6.macNodeId = 6
**.gNodeB7.macCellId = 7
**.gNodeB7.macNodeId = 7
**.gNodeB8.macCellId = 8
**.gNodeB8.macNodeId = 8
**.gNodeB9.macCellId = 9
**.gNodeB9.macNodeId = 9
**.gNodeB10.macCellId = 10
**.gNodeB10.macNodeId = 10
**.gNodeB11.macCellId = 11
**.gNodeB11.macNodeId = 11
**.gNodeB12.macCellId = 12
**.gNodeB12.macNodeId = 12
**.gNodeB13.macCellId = 13
**.gNodeB13.macNodeId = 13
**.gNodeB14.macCellId = 14
**.gNodeB14.macNodeId = 14
**.gNodeB15.macCellId = 15
**.gNodeB15.macNodeId = 15
**.gNodeB16.macCellId = 16
**.gNodeB16.macNodeId = 16
**.gNodeB17.macCellId = 17
**.gNodeB17.macNodeId = 17
**.gNodeB18.macCellId = 18
**.gNodeB18.macNodeId = 18
**.gNodeB19.macCellId = 19
**.gNodeB19.macNodeId = 19
**.gNodeB20.macCellId = 20
**.gNodeB20.macNodeId = 20
**.gNodeB21.macCellId = 21
**.gNodeB21.macNodeId = 21
**.gNodeB22.macCellId = 22
**.gNodeB22.macNodeId = 22
**.gNodeB23.macCellId = 23
**.gNodeB23.macNodeId = 23
**.gNodeB24.macCellId = 24
**.gNodeB24.macNodeId = 24
**.gNodeB25.macCellId = 25
**.gNodeB25.macNodeId = 25
**.gNodeB26.macCellId = 26
**.gNodeB26.macNodeId = 26
**.gNodeB27.macCellId = 27
**.gNodeB27.macNodeId = 27
**.gNodeB28.macCellId = 28
**.gNodeB28.macNodeId = 28
**.gNodeB29.macCellId = 29
**.gNodeB29.macNodeId = 29
**.gNodeB30.macCellId = 30
**.gNodeB30.macNodeId = 30
**.gNodeB31.macCellId = 31
**.gNodeB31.macNodeId = 31
**.gNodeB32.macCellId = 32
**.gNodeB32.macNodeId = 32
**.gNodeB33.macCellId = 33
**.gNodeB33.macNodeId = 33
**.gNodeB34.macCellId = 34
**.gNodeB34.macNodeId = 34
**.gNodeB35.macCellId = 35
**.gNodeB35.macNodeId = 35
**.gNodeB36.macCellId = 36
**.gNodeB36.macNodeId = 36
**.gNodeB37.macCellId = 37
**.gNodeB37.macNodeId = 37
**.gNodeB38.macCellId = 38
**.gNodeB38.macNodeId = 38
**.gNodeB39.macCellId = 39
**.gNodeB39.macNodeId = 39
**.gNodeB40.macCellId = 40
**.gNodeB40.macNodeId = 40
**.gNodeB41.macCellId = 41
**.gNodeB41.macNodeId = 41
**.gNodeB42.macCellId = 42
**.gNodeB42.macNodeId = 42
**.gNodeB43.macCellId = 43
**.gNodeB43.macNodeId = 43
**.gNodeB44.macCellId = 44
**.gNodeB44.macNodeId = 44
**.gNodeB45.macCellId = 45
**.gNodeB45.macNodeId = 45
**.gNodeB46.macCellId = 46
**.gNodeB46.macNodeId = 46
**.gNodeB47.macCellId = 47
**.gNodeB47.macNodeId = 47
**.gNodeB48.macCellId = 48
**.gNodeB48.macNodeId = 48
**.gNodeB49.macCellId = 49
**.gNodeB49.macNodeId = 49
**.gNodeB50.macCellId = 50
**.gNodeB50.macNodeId = 50
**.gNodeB51.macCellId = 51
**.gNodeB51.macNodeId = 51
**.gNodeB52.macCellId = 52
**.gNodeB52.macNodeId = 52
**.gNodeB53.macCellId = 53
**.gNodeB53.macNodeId = 53
**.gNodeB54.macCellId = 54
**.gNodeB54.macNodeId = 54
**.gNodeB55.macCellId = 55
**.gNodeB55.macNodeId = 55
**.gNodeB56.macCellId = 56
**.gNodeB56.macNodeId = 56
**.gNodeB57.macCellId = 57
**.gNodeB57.macNodeId = 57
**.gNodeB58.macCellId = 58
**.gNodeB58.macNodeId = 58
**.gNodeB59.macCellId = 59
**.gNodeB59.macNodeId = 59
**.gNodeB60.macCellId = 60
**.gNodeB60.macNodeId = 60
**.gNodeB61.macCellId = 61
**.gNodeB61.macNodeId = 61
**.gNodeB62.macCellId = 62
**.gNodeB62.macNodeId = 62
**.gNodeB63.macCellId = 63
**.gNodeB63.macNodeId = 63
#**.gNodeB64.macCellId = 64
#**.gNodeB64.macNodeId = 64
#**.gNodeB65.macCellId = 65
#**.gNodeB65.macNodeId = 65
#**.gNodeB66.macCellId = 66
#**.gNodeB66.macNodeId = 66
#**.gNodeB67.macCellId = 67
#**.gNodeB67.macNodeId = 67
#**.gNodeB68.macCellId = 68
#**.gNodeB68.macNodeId = 68
#**.gNodeB69.macCellId = 69
#**.gNodeB69.macNodeId = 69
#**.gNodeB70.macCellId = 70
#**.gNodeB70.macNodeId = 70
#**.gNodeB71.macCellId = 71
#**.gNodeB71.macNodeId = 71
#**.gNodeB72.macCellId = 72
#**.gNodeB72.macNodeId = 72
#**.gNodeB73.macCellId = 73
#**.gNodeB73.macNodeId = 73
#**.gNodeB74.macCellId = 74
#**.gNodeB74.macNodeId = 74



# Enable handover
*.car[*].cellularNic.nrPhy.enableHandover = false
*.gNodeB*.cellularNic.phy.enableHandover = false
*.gNodeB*.cellularNic.phy.handoverLatency = 50ms
*.gNodeB*.cellInfo.broadcastMessageInterval = 1s # eNB will sends broadcast triggers every second

#*.cellularNic.nrPhy.cellAssociationSignal.vector-recording = true

##########################################################
# X2 + SCTP (7 gNodeB en cadena) — FUNCIONA
##########################################################

# numX2Apps = nº vecinos X2
#*.gNodeB1.numX2Apps = 1
#*.gNodeB2.numX2Apps = 2
#*.gNodeB3.numX2Apps = 2
#*.gNodeB4.numX2Apps = 2
#*.gNodeB5.numX2Apps = 2
#*.gNodeB6.numX2Apps = 2
#*.gNodeB7.numX2Apps = 1
#
## puertos dentro de cada nodo (x2App[0]=5000, x2App[1]=5001)
#*.gNodeB*.x2App[*].server.localPort = 5000 + ancestorIndex(1)
#
## --- gNodeB1 (solo vecino: gNodeB2) ---
#*.gNodeB1.x2App[0].client.connectAddress = "gNodeB2%x2ppp0"
#
## --- gNodeB2 (vecinos: gNodeB1 y gNodeB3) ---
#*.gNodeB2.x2App[0].client.connectAddress = "gNodeB1%x2ppp0"
#*.gNodeB2.x2App[1].client.connectAddress = "gNodeB3%x2ppp0"
#
## --- gNodeB3 (vecinos: gNodeB2 y gNodeB4) ---
#*.gNodeB3.x2App[0].client.connectAddress = "gNodeB2%x2ppp1"
#*.gNodeB3.x2App[1].client.connectAddress = "gNodeB4%x2ppp0"
#
## --- gNodeB4 (vecinos: gNodeB3 y gNodeB5) ---
#*.gNodeB4.x2App[0].client.connectAddress = "gNodeB3%x2ppp1"
#*.gNodeB4.x2App[1].client.connectAddress = "gNodeB5%x2ppp0"
#
## --- gNodeB5 (vecinos: gNodeB4 y gNodeB6) ---
#*.gNodeB5.x2App[0].client.connectAddress = "gNodeB4%x2ppp1"
#*.gNodeB5.x2App[1].client.connectAddress = "gNodeB6%x2ppp0"
#
## --- gNodeB6 (vecinos: gNodeB5 y gNodeB7) ---
#*.gNodeB6.x2App[0].client.connectAddress = "gNodeB5%x2ppp1"
#*.gNodeB6.x2App[1].client.connectAddress = "gNodeB7%x2ppp0"
#
## --- gNodeB7 (solo vecino: gNodeB6) ---
#*.gNodeB7.x2App[0].client.connectAddress = "gNodeB6%x2ppp1"
#
## SCTP
#**.sctp.nagleEnabled = false
#**.sctp.enableHeartbeats = false






# ----------------------------------------------------------------------------- #
# Config "VoIP-Uplink"
#
[Config VoIP-UL]

##########################################################
#                    App Layer                           #
##########################################################
*.server.numApps = 200
*.server.app[*].typename = "VoIPReceiver"
*.server.app[*].localPort = 3000 + ancestorIndex(0) 

*.car[*].numApps = 1
*.car[*].app[0].typename = "VoIPSender"
*.car[*].app[0].destAddress = "server"
*.car[*].app[0].destPort = 3000 + ancestorIndex(1)

*.car[*].app[0].PacketSize = 1400
*.car[*].app[0].sampling_time = 0.000448s
*.car[*].app[0].silences = false

#isoto
#*.car[*].numApps = 2
#*.car[*].app[0].typename = "Navigator"
#*.car[*].app[1].typename = "VoIPSender"
#*.car[*].app[1].destAddress = "server"
#*.car[*].app[1].destPort = 3000 + ancestorIndex(1)


# Config "CBR-Uplink"
#
[Config CBR-UL]

##########################################################
#                    App Layer                           #
##########################################################
*.server.numApps = 800
*.server.app[*].typename = "CbrReceiver"
*.server.app[*].localPort = 3000 + ancestorIndex(0) 

*.car[*].numApps = 1
*.car[*].app[0].typename = "CbrSender"
*.car[*].app[0].destAddress = "server"
*.car[*].app[0].destPort = 3000 + ancestorIndex(1)

*.car[*].app[0].PacketSize = 1400
*.car[*].app[0].sampling_time = 0.000448s


# ----------------------------------------------------------------------------- #


# ----------------------------------------------------------------------------- #
# Config "sNavigator"
#
[Config sNavigator]

##########################################################
#                    App Layer                           #
##########################################################
*.server.numApps = 20
*.server.app[*].typename = "SNavigatorServer2"
*.server.app[*].localPort = 3000 + ancestorIndex(0)
*.server.app[*].destPort = 6000 + ancestorIndex(0)
*.server.app[*].destAddress = "car[" + string(ancestorIndex(0)) + "]"
*.server.app[*].startTime = 0.05s

*.server.app[*].mapName = "map"
*.server.app[*].enableMaxDistance = true
*.server.app[*].maxDistance = 4


*.car[*].numApps = 1
*.car[*].app[0].typename = "SNavigatorVehicle2"
*.car[*].app[0].localPort = 6000 + ancestorIndex(1)
*.car[*].app[0].destPort = 3000 + ancestorIndex(1)
*.car[*].app[0].destAddress = "server"
*.car[*].app[0].startTime = 0.05s

# ----------------------------------------------------------------------------- #

[Config sNavigatorBien]

##########################################################
#                    App Layer                           #
##########################################################
*.server.numApps = 20
*.server.app[*].typename = "SNavigatorServer2"
.server.app[0].localPort = 3000
*.server.app[0].destPort = 6000
*.server.app[0].destAddress = "car[0]"

*.server.app[1].localPort = 3001
*.server.app[1].destPort = 6001
*.server.app[1].destAddress = "car[1]"

*.server.app[2].localPort = 3002
*.server.app[2].destPort = 6002
*.server.app[2].destAddress = "car[2]"

*.server.app[3].localPort = 3003
*.server.app[3].destPort = 6003
*.server.app[3].destAddress = "car[3]"

*.server.app[4].localPort = 3004
*.server.app[4].destPort = 6004
*.server.app[4].destAddress = "car[4]"

*.server.app[5].localPort = 3005
*.server.app[5].destPort = 6005
*.server.app[5].destAddress = "car[5]"

*.server.app[6].localPort = 3006
*.server.app[6].destPort = 6006
*.server.app[6].destAddress = "car[6]"

*.server.app[7].localPort = 3007
*.server.app[7].destPort = 6007
*.server.app[7].destAddress = "car[7]"

*.server.app[8].localPort = 3008
*.server.app[8].destPort = 6008
*.server.app[8].destAddress = "car[8]"

*.server.app[9].localPort = 3009
*.server.app[9].destPort = 6009
*.server.app[9].destAddress = "car[9]"

*.server.app[10].localPort = 3010
*.server.app[10].destPort = 6010
*.server.app[10].destAddress = "car[10]"

*.server.app[11].localPort = 3011
*.server.app[11].destPort = 6011
*.server.app[11].destAddress = "car[11]"

*.server.app[12].localPort = 3012
*.server.app[12].destPort = 6012
*.server.app[12].destAddress = "car[12]"

*.server.app[13].localPort = 3013
*.server.app[13].destPort = 6013
*.server.app[13].destAddress = "car[13]"

*.server.app[14].localPort = 3014
*.server.app[14].destPort = 6014
*.server.app[14].destAddress = "car[14]"

*.server.app[15].localPort = 3015
*.server.app[15].destPort = 6015
*.server.app[15].destAddress = "car[15]"

*.server.app[16].localPort = 3016
*.server.app[16].destPort = 6016
*.server.app[16].destAddress = "car[16]"

*.server.app[17].localPort = 3017
*.server.app[17].destPort = 6017
*.server.app[17].destAddress = "car[17]"

*.server.app[18].localPort = 3018
*.server.app[18].destPort = 6018
*.server.app[18].destAddress = "car[18]"

*.server.app[19].localPort = 3019
*.server.app[19].destPort = 6019
*.server.app[19].destAddress = "car[19]"
*.server.app[*].startTime = 0.05s

*.server.app[*].mapName = "map"


*.car[*].numApps = 1
*.car[*].app[0].typename = "SNavigatorVehicle2"
*.car[0].app[0].localPort = 6000
*.car[0].app[0].destPort = 3000
*.car[1].app[0].localPort = 6001
*.car[1].app[0].destPort = 3001
*.car[2].app[0].localPort = 6002
*.car[2].app[0].destPort = 3002
*.car[3].app[0].localPort = 6003
*.car[3].app[0].destPort = 3003
*.car[4].app[0].localPort = 6004
*.car[4].app[0].destPort = 3004
*.car[5].app[0].localPort = 6005
*.car[5].app[0].destPort = 3005
*.car[6].app[0].localPort = 6006
*.car[6].app[0].destPort = 3006
*.car[7].app[0].localPort = 6007
*.car[7].app[0].destPort = 3007
*.car[8].app[0].localPort = 6008
*.car[8].app[0].destPort = 3008
*.car[9].app[0].localPort = 6009
*.car[9].app[0].destPort = 3009
*.car[10].app[0].localPort = 6010
*.car[10].app[0].destPort = 3010
*.car[11].app[0].localPort = 6011
*.car[11].app[0].destPort = 3011
*.car[12].app[0].localPort = 6012
*.car[12].app[0].destPort = 3012
*.car[13].app[0].localPort = 6013
*.car[13].app[0].destPort = 3013
*.car[14].app[0].localPort = 6014
*.car[14].app[0].destPort = 3014
*.car[15].app[0].localPort = 6015
*.car[15].app[0].destPort = 3015
*.car[16].app[0].localPort = 6016
*.car[16].app[0].destPort = 3016
*.car[17].app[0].localPort = 6017
*.car[17].app[0].destPort = 3017
*.car[18].app[0].localPort = 6018
*.car[18].app[0].destPort = 3018
*.car[19].app[0].localPort = 6019
*.car[19].app[0].destPort = 3019
*.car[*].app[0].destAddress = "server"
*.car[*].app[0].startTime = 0.05s

# ----------------------------------------------------------------------------- #
# Config "Combined-CBR-SNav"

[Config Combined-CBR-SNav]

##########################################################
#                    App Layer                           #
##########################################################

# Servidor: 40 aplicaciones (20 CBR + 20 SNavigator)
*.server.numApps = 40
*.server.app[0..19].typename = "CbrReceiver"
*.server.app[0..19].localPort = 3000 + index

*.server.app[20..39].typename = "SNavigatorServer2"
*.server.app[20..39].localPort = 3000 + index - 20
*.server.app[20..39].destPort = 6000 + index - 20
*.server.app[20..39].destAddress = "car[" + string(index - 20) + "]"
*.server.app[20..39].startTime = 0.05s
*.server.app[20..39].mapName = "map"

# Vehículos: 2 aplicaciones por coche
*.car[*].numApps = 2

# Aplicación 0: CbrSender
*.car[*].app[0].typename = "CbrSender"
*.car[*].app[0].destAddress = "server"
*.car[*].app[0].destPort = 3000 + index
*.car[*].app[0].PacketSize = 1400
*.car[*].app[0].sampling_time = 0.000448s

# Aplicación 1: SNavigatorVehicle2
*.car[*].app[1].typename = "SNavigatorVehicle2"
*.car[*].app[1].localPort = 6000 + index
*.car[*].app[1].destPort = 3000 + index
*.car[*].app[1].destAddress = "server"
*.car[*].app[1].startTime = 0.05s



# ----------------------------------------------------------------------------- #
# Config "VoIP-D2D"
#
# In this configuration, UEs run a VoIP application (using UDP as transport layer protocol)
# They communicate using the D2D link, if they are under the same cell
#
[Config VoIP-D2D]

**.amcMode = "D2D"

# D2D-capable flows are started in D2D mode
*.car[*].cellularNic.d2dInitialMode = true

# --- Select CQI for D2D transmissions --- #
#
# To enable the reporting of CQIs for each D2D link, set the parameter *.gNodeB.cellularNic.phy.enableD2DCqiReporting
# To use fixed CQI, set the parameter **.usePreconfiguredTxParams and select the desired CQI using the parameter **.d2dCqi
*.gNodeB*.cellularNic.nrPhy.enableD2DCqiReporting = true
**.usePreconfiguredTxParams = false

# each vehicle transmits using D2D to the following one 
*.car[*].numApps = 1
*.car[0].app[0].typename = "VoIPSender"
*.car[0].app[0].destAddress = "car[1]"
*.car[1].app[0].typename = "VoIPReceiver"

*.car[2].app[0].typename = "VoIPSender"
*.car[2].app[0].destAddress = "car[3]"
*.car[3].app[0].typename = "VoIPReceiver"

*.car[4].app[0].typename = "VoIPSender"
*.car[4].app[0].destAddress = "car[5]"
*.car[5].app[0].typename = "VoIPReceiver"

*.car[6].app[0].typename = "VoIPSender"
*.car[6].app[0].destAddress = "car[7]"
*.car[7].app[0].typename = "VoIPReceiver"


# ----------------------------------------------------------------------------- #
# Config "D2DMulticast"
#
# In this configuration, vehicles form two groups (vehicles on the same lane are in the same group).
# For each group, the leader vehicle transmits periodic alert messages to following vehicles
#
[Config D2DMulticast]

### Enable D2D for the eNodeB and the UEs involved in direct communications ###
**.amcMode = "D2D"

### Select CQI for D2D transmissions ###
# One-to-Many communications work with fixed CQI values only.
# Set the parameter **.usePreconfiguredTxParams and select the desired CQI using the parameter **.d2dCqi
**.enableD2DCqiReporting = false
**.usePreconfiguredTxParams = true
**.d2dCqi = ${cqi=7}

### Traffic configuration ###
*.car[*].numApps = 1

# --- 1st group: 0 < 1 < 2 < 3 -- #
*.car[0..4].ipv4.configurator.mcastGroups = "224.0.0.10"
# transmitter
*.car[0].app[*].typename = "AlertSender"
*.car[0].app[*].localPort = 3088+ancestorIndex(0) 
*.car[0].app[*].startTime = uniform(0s,0.02s)
*.car[0].app[*].destAddress = "224.0.0.10"          # IP address of the multicast group 
*.car[0].app[*].destPort = 1000
# receivers
*.car[1..3].app[*].typename = "AlertReceiver"
*.car[1..3].app[*].localPort = 1000

# --- 2nd group: 4 < 5 < 6 < 7 -- #
*.car[4..7].ipv4.configurator.mcastGroups = "224.0.0.11"
# transmitter
*.car[4].app[*].typename = "AlertSender"
*.car[4].app[*].localPort = 3088+ancestorIndex(0) 
*.car[4].app[*].startTime = uniform(0s,0.02s)
*.car[4].app[*].destAddress = "224.0.0.11"          # IP address of the multicast group 
*.car[4].app[*].destPort = 1000
# receivers (they must belong to the above multicast group)
*.car[5..7].app[*].typename = "AlertReceiver"
*.car[5..7].app[*].localPort = 1000

# DESACTIVAR TODOS LOS VECTORES (global)
**.vector-recording = false


[Config CapacityTest]
sim-time-limit = 1200s

*.server.numApps = 1
*.server.app[0].typename = "simu5g.apps.PLRut.CapacityServer"
*.server.app[0].localPort = 3000
*.server.app[0].destPort = 6000
*.server.app[0].PacketSize = 200
*.server.app[0].mapName = "map.net.xml"
*.server.app[0].capacityFile = "results/capacidad_madrid_fixed_10_edit_final.json"
*.server.app[0].duarouterPath = "/usr/bin/duarouter"
*.server.app[0].tmpDir = "tmp"
*.server.app[0].defaultCapacity = 2
*.server.app[0].retryInterval = 0.1s
*.server.app[0].violationsFile = "violations_WITHOUT_FINAL.txt"

*.car[*].numApps = 1
*.car[*].app[0].typename = "simu5g.apps.PLRut.CapacityVehicle"
*.car[*].app[0].localPort = 6000
*.car[*].app[0].destPort = 3000
*.car[*].app[0].destAddress = "server"
*.car[*].app[0].PacketSize = 200
*.car[*].app[0].tos = -1
*.car[*].app[0].reportInterval = 0.1s
*.car[*].app[0].travelTimeFile = "results/travel_times_v4_6veh_FINAL.txt"  




