<?xml version="1.0" encoding="UTF-8"?>
<routes xmlns:xsi="http://www.w3.org/2001/XMLSchema-instance" xsi:noNamespaceSchemaLocation="http://sumo.dlr.de/xsd/routes_file.xsd">
    <vehicle id="0" depart="0.00">
        <route edges="44336472#6 4314421#3 4314421#4 4314421#5 7649042#0 7649042#1 7649042#2 43407393#3 43407393#4 43407393#5 43407393#6 43407393#7 44336473#0 44336473#1"/>
    </vehicle>
    <vehicle id="1" depart="0.00">
        <route edges="187020468 187020465#0 187020465#1 187020465#2 187020465#3 187020467 187020466 -26568013#1 -26568013#0 11101678#9 11101678#10 -195664261#1 -195664261#0 -219137730#1"/>
    </vehicle>
    <vehicle id="2" depart="0.00">
        <route edges="8029920#7 8029920#8 8029920#9 868615044#0 868615044#1 868615044#2 7732165#1 303407852#5 303407852#6 868615045#0 868615045#1 868615045#2 868615045#3 868615045#4"/>
    </vehicle>
    <vehicle id="3" depart="0.00">
        <route edges="27173918#0 27173918#1 27173918#2 27173918#3 44336472#5 44336472#6 4314421#3 4314421#4 4314421#5 7649042#0 7649042#1 7649042#2 43407393#3 43407393#4"/>
    </vehicle>
    <vehicle id="4" depart="0.00">
        <route edges="14459386#1 14459386#2 161638119#2 161638119#3 161638119#0 161793151#0 161793151#1 8031768#0 8031768#1 27464019#0 27464019#1 44336472#0 44336472#1 44336472#2"/>
    </vehicle>
    <vehicle id="5" depart="0.00">
        <route edges="-195664261#1 -195664261#0 11101836#0 11101836#1 11101836#2 302644186#0 302644186#1 302644186#2 24222380#3 24222380#4 24222380#5 -27173565#3 -27173565#2 -27173565#1"/>
    </vehicle>
    <vehicle id="6" depart="0.00">
        <route edges="44336474#1 44336474#2 -7971523#1 -7971523#0 14459910 562895838#0 562895838#1 562895834 27926842#0 27926842#1 27926842#2 27926842#3 27464019#0 27464019#1"/>
    </vehicle>
    <vehicle id="7" depart="0.00">
        <route edges="14459386#2 161638119#2 161638119#3 161638119#0 161793151#0 161793151#1 8031768#0 8031768#1 27464019#0 27464019#1 44336472#0 44336472#1 44336472#2 43407393#5"/>
    </vehicle>
    <vehicle id="8" depart="0.00">
        <route edges="7732165#5 255327642#8 255327642#9 255327642#10 8029884#0 8029884#1 24791406#0 24791406#1 24791406#2 24791395#3 24791395#4 24791395#5 7971522#10 7971522#11"/>
    </vehicle>
    <vehicle id="9" depart="0.00">
        <route edges="24275863#1 104340951#0 104340951#1 45764847#0 45764847#1 45764847#2 45764847#3 45764844#0 45764844#1 45764844#2 45764844#3 45764844#4 45764844#5 45764844#6"/>
    </vehicle>
    <vehicle id="10" depart="0.00">
        <route edges="868615044#6 868615044#7 868615044#8 311144373 311144372 255825106#0 255825106#1 255825106#2 756122282#0 756122282#1 756122282#2 255825107#0 255825107#1 24275863#0"/>
    </vehicle>
    <vehicle id="11" depart="0.00">
        <route edges="7971522#9 7971522#10 7971522#11 7971522#12 7971522#13 7971522#14 7971522#15 7971522#16 7971522#17 7971522#18 43410336#1 335720387#0 11101348#0 11101348#1"/>
    </vehicle>
    <vehicle id="12" depart="0.00">
        <route edges="7732165#4 7732165#5 7732165#6 7732165#7 7732165#8 44737275#4 44737275#5 44737275#6 44737275#7 44737275#8 44737275#9 44737275#10 44737275#11 45764848#0"/>
    </vehicle>
    <vehicle id="13" depart="0.00">
        <route edges="4314421#0 4314421#1 4314421#2 4314421#3 4314421#4 4314421#5 7649042#0 7649042#1 7649042#2 43407393#3 43407393#4 43407393#5 43407393#6 43407393#7"/>
    </vehicle>
    <vehicle id="14" depart="0.00">
        <route edges="255327642#0 255327642#1 255327642#2 255327642#3 24275863#0 24275863#1 104340951#0 104340951#1 45764847#0 45764847#1 45764847#2 45764847#3 45764844#0 45764844#1"/>
    </vehicle>
    <vehicle id="15" depart="0.00">
        <route edges="7971522#16 11101678#4 11101678#5 11101678#6 11101678#7 11101678#8 11101678#9 11101678#10 195664261#2 195664262 392502703 767647776 14771608 392502706"/>
    </vehicle>
    <vehicle id="16" depart="0.00">
        <route edges="14459939 7971523#0 7971523#1 425082671#0 425082671#1 219137730#0"/>
    </vehicle>
    <vehicle id="17" depart="0.00">
        <route edges="-43759962#0 -392502706 -14771608 392502705#1 334741193#0 334741193#1 334741193#2 334741193#3 334741193#4 334741193#5 334741193#6 334741193#7 334741193#8 334741193#9"/>
    </vehicle>
    <vehicle id="18" depart="0.00">
        <route edges="-83668215#0 -43759960#1 -43759960#0 -43759962#1 -43759962#0 -392502706 -14771608 -767647776 -392502703 -195664262 -195664261#2 -195664261#1 -195664261#0 195664261#0"/>
    </vehicle>
    <vehicle id="19" depart="0.00">
        <route edges="44336472#3 44336472#4 44336472#5 44336472#6 4314421#3 4314421#4 4314421#5 7649042#0 7649042#1 7649042#2 43407393#3 43407393#4 43407393#5 43407393#6"/>
    </vehicle>
    <vehicle id="20" depart="0.00">
        <route edges="44336473#1 107078373#0 107078373#1 107078373#2 107078373#3 -421396691#2 -421396691#1 -421396691#0 -11101396#2 -11101396#1 -11101396#0 43410336#0 43410336#1 -11101490#2"/>
    </vehicle>
    <vehicle id="21" depart="0.00">
        <route edges="11101717#4 11101717#5 302644186#6 302644186#7 302644186#8 302644186#9 392502704#0 392502704#1 392502705#0 392502705#1 334741193#0 334741193#1 334741193#2 334741193#3"/>
    </vehicle>
    <vehicle id="22" depart="0.00">
        <route edges="868615046#5 868615046#6 868615046#7 7971522#8 7971522#9 7971522#10 7971522#11 7971522#12 7971522#13 7971522#14 7971522#15 7971522#16 7971522#17 7971522#18"/>
    </vehicle>
    <vehicle id="23" depart="0.00">
        <route edges="7971522#6 7971522#7 7971522#8 7971522#9 7971522#10 7971522#11 334741193#5 334741193#6 334741193#7 334741193#8 334741193#9 44737275#0 44737275#1 44737275#2"/>
    </vehicle>
    <vehicle id="24" depart="0.00">
        <route edges="24225793#0 24225793#1 24225793#2 24225793#3 24225793#4 24225793#5 24225793#6 24225793#7 24225793#8 24225793#9 24225793#10 24225793#11 24225793#12 7642851#0"/>
    </vehicle>
    <vehicle id="25" depart="0.00">
        <route edges="14459174#1 14459174#2 14459174#3 43410334#3 43410334#4 43410334#5 43410334#6 43410334#7 43410334#8 43410334#9 44336473#0 44336473#1 107078373#0 107078373#1"/>
    </vehicle>
    <vehicle id="26" depart="0.00">
        <route edges="8029884#3 8029884#4 334741193#7 334741193#8 334741193#9 44737274#0 44737274#1 44737274#2 44737274#3 8029884#0 8029884#1 24791406#0 24791406#1 24791406#2"/>
    </vehicle>
    <vehicle id="27" depart="0.00">
        <route edges="187020465#1 187020465#2 187020465#3 187020467 187020466 -26568013#1 -26568013#0 11101678#9 11101678#10 195664261#2 195664262 392502703 767647776 392502705#1"/>
    </vehicle>
    <vehicle id="28" depart="0.00">
        <route edges="43407393#3 43407393#4 43407393#5 43407393#6 43407393#7 44336473#0 44336473#1 107078373#0 107078373#1 107078373#2 107078373#3 -421396691#2 -421396691#1 -421396691#0"/>
    </vehicle>
    <vehicle id="29" depart="0.00">
        <route edges="255825106#1 255825106#2 756122282#0 756122282#1 756122282#2 255825107#0 255825107#1 24275863#0 24275863#1 104340951#0 104340951#1 45764847#0 45764847#1 45764847#2"/>
    </vehicle>
    <vehicle id="30" depart="0.00">
        <route edges="991139332 248905968 11101830 302644186#0 302644186#1 302644186#2 302644186#3 302644186#4 302644186#5 302644186#6 302644186#7 302644186#8 302644186#9 392502704#0"/>
    </vehicle>
    <vehicle id="31" depart="0.00">
        <route edges="-8031768#0 14459386#0 14459386#1 14459386#2 161638119#2 161638119#3 161638119#0 161793151#0 161793151#1 8031768#0 8031768#1 27464019#0 27464019#1 44336472#0"/>
    </vehicle>
    <vehicle id="32" depart="0.00">
        <route edges="767647776 -767647776 -392502703 -195664262 -195664261#2 -195664261#1 -195664261#0 -219137730#1 -219137730#0 -44737271#1 -44737271#0 -421396691#2 -421396691#1 -421396691#0"/>
    </vehicle>
    <vehicle id="33" depart="0.00">
        <route edges="8029884#2 8029884#3 8029884#4 334741193#7 334741193#8 334741193#9 44737274#0 44737274#1 44737274#2 44737274#3 8029884#0 8029884#1 24791406#0 24791406#1"/>
    </vehicle>
    <vehicle id="34" depart="0.00">
        <route edges="8029884#1 8029884#2 8029884#3 8029884#4 334741193#7 334741193#8 334741193#9 44737274#0 44737274#1 44737274#2 44737274#3 8029884#0 8029884#1 24791406#0 24791406#1 24791406#2 24791395#3 24791395#4"/>
    </vehicle>
</routes>
