<routes xmlns:xsi="http://www.w3.org/2001/XMLSchema-instance" xsi:noNamespaceSchemaLocation="http://sumo.dlr.de/xsd/routes_file.xsd">
  <vType id="car" accel="0.8" decel="4.5" sigma="1.0" length="4" minGap="2.5" maxSpeed="13.9" guiShape="passenger" />
  <vehicle id="0" type="car" depart="0.00" departPos="7.67" departSpeed="0">
      <route edges="-107090824#0"/>
  </vehicle>
  <vehicle id="1" type="car" depart="0.00" departPos="21.8" departSpeed="0">
      <route edges="-107090824#1"/>
  </vehicle>
  <vehicle id="2" type="car" depart="0.00" departPos="24.745" departSpeed="0">
      <route edges="-107090824#2"/>
  </vehicle>
  <vehicle id="3" type="car" depart="0.00" departPos="32.66" departSpeed="0">
      <route edges="-11101396#1"/>
  </vehicle>
  <vehicle id="4" type="car" depart="0.00" departPos="4.795" departSpeed="0">
      <route edges="-11101396#2"/>
  </vehicle>
  <vehicle id="5" type="car" depart="0.00" departPos="60.79" departSpeed="0">
      <route edges="-11101490#1"/>
  </vehicle>
  <vehicle id="6" type="car" depart="0.00" departPos="36.96" departSpeed="0">
      <route edges="-116931097"/>
  </vehicle>
  <vehicle id="7" type="car" depart="0.00" departPos="18.73" departSpeed="0">
      <route edges="-1395587389#0"/>
  </vehicle>
  <vehicle id="8" type="car" depart="0.00" departPos="8.085" departSpeed="0">
      <route edges="-14771608"/>
  </vehicle>
  <vehicle id="9" type="car" depart="0.00" departPos="56.945" departSpeed="0">
      <route edges="-16183492"/>
  </vehicle>
  <vehicle id="10" type="car" depart="0.00" departPos="37.285" departSpeed="0">
      <route edges="-182096890"/>
  </vehicle>
  <vehicle id="11" type="car" depart="0.00" departPos="20.27" departSpeed="0">
      <route edges="-195664261#0"/>
  </vehicle>
  <vehicle id="12" type="car" depart="0.00" departPos="25.36" departSpeed="0">
      <route edges="-195664261#2"/>
  </vehicle>
  <vehicle id="13" type="car" depart="0.00" departPos="14.385" departSpeed="0">
      <route edges="-195664262"/>
  </vehicle>
  <vehicle id="14" type="car" depart="0.00" departPos="22.91" departSpeed="0">
      <route edges="-219137730#1"/>
  </vehicle>
  <vehicle id="15" type="car" depart="0.00" departPos="7.245" departSpeed="0">
      <route edges="-24222352#1"/>
  </vehicle>
  <vehicle id="16" type="car" depart="0.00" departPos="9.335" departSpeed="0">
      <route edges="-26568013#1"/>
  </vehicle>
  <vehicle id="17" type="car" depart="0.00" departPos="24.775" departSpeed="0">
      <route edges="-27173565#2"/>
  </vehicle>
  <vehicle id="18" type="car" depart="0.00" departPos="26.81" departSpeed="0">
      <route edges="-27173565#3"/>
  </vehicle>
  <vehicle id="19" type="car" depart="0.00" departPos="44.46" departSpeed="0">
      <route edges="-27173716#1"/>
  </vehicle>
  <vehicle id="20" type="car" depart="0.00" departPos="4.75" departSpeed="0">
      <route edges="-27173716#3"/>
  </vehicle>
  <vehicle id="21" type="car" depart="0.00" departPos="36.84" departSpeed="0">
      <route edges="-311144367#0"/>
  </vehicle>
  <vehicle id="22" type="car" depart="0.00" departPos="5.47" departSpeed="0">
      <route edges="-311144367#1"/>
  </vehicle>
  <vehicle id="23" type="car" depart="0.00" departPos="5.32" departSpeed="0">
      <route edges="-311144367#2"/>
  </vehicle>
  <vehicle id="24" type="car" depart="0.00" departPos="7.325" departSpeed="0">
      <route edges="-392502706"/>
  </vehicle>
  <vehicle id="25" type="car" depart="0.00" departPos="55.475" departSpeed="0">
      <route edges="-421396691#0"/>
  </vehicle>
  <vehicle id="26" type="car" depart="0.00" departPos="32.635" departSpeed="0">
      <route edges="-425082671#0"/>
  </vehicle>
  <vehicle id="27" type="car" depart="0.00" departPos="60.465" departSpeed="0">
      <route edges="-43759960#0"/>
  </vehicle>
  <vehicle id="28" type="car" depart="0.00" departPos="58.71" departSpeed="0">
      <route edges="-43759962#0"/>
  </vehicle>
  <vehicle id="29" type="car" depart="0.00" departPos="22.76" departSpeed="0">
      <route edges="-44737271#0"/>
  </vehicle>
  <vehicle id="30" type="car" depart="0.00" departPos="38.14" departSpeed="0">
      <route edges="-4489541"/>
  </vehicle>
  <vehicle id="31" type="car" depart="0.00" departPos="41.425" departSpeed="0">
      <route edges="-7971523#0"/>
  </vehicle>
  <vehicle id="32" type="car" depart="0.00" departPos="22.145" departSpeed="0">
      <route edges="-8031768#0"/>
  </vehicle>
  <vehicle id="33" type="car" depart="0.00" departPos="8.045" departSpeed="0">
      <route edges="-8031768#1"/>
  </vehicle>
  <vehicle id="34" type="car" depart="0.00" departPos="48.12" departSpeed="0">
      <route edges="-8098344"/>
  </vehicle>
  <vehicle id="35" type="car" depart="0.00" departPos="8.33" departSpeed="0">
      <route edges="-83668209#0"/>
  </vehicle>
  <vehicle id="36" type="car" depart="0.00" departPos="59.995" departSpeed="0">
      <route edges="-83668209#1"/>
  </vehicle>
  <vehicle id="37" type="car" depart="0.00" departPos="59.415" departSpeed="0">
      <route edges="-83668213#0"/>
  </vehicle>
  <vehicle id="38" type="car" depart="0.00" departPos="30.27" departSpeed="0">
      <route edges="-83668213#1"/>
  </vehicle>
  <vehicle id="39" type="car" depart="0.00" departPos="62.95" departSpeed="0">
      <route edges="-83668215#0"/>
  </vehicle>
  <vehicle id="40" type="car" depart="0.00" departPos="5.205" departSpeed="0">
      <route edges="-83668215#1"/>
  </vehicle>
  <vehicle id="41" type="car" depart="0.00" departPos="68.525" departSpeed="0">
      <route edges="-8572147"/>
  </vehicle>
  <vehicle id="42" type="car" depart="0.00" departPos="5.735" departSpeed="0">
      <route edges="-991139332"/>
  </vehicle>
  <vehicle id="43" type="car" depart="0.00" departPos="28.17" departSpeed="0">
      <route edges="104340951#0"/>
  </vehicle>
  <vehicle id="44" type="car" depart="0.00" departPos="40.535" departSpeed="0">
      <route edges="104340960"/>
  </vehicle>
  <vehicle id="45" type="car" depart="0.00" departPos="68.945" departSpeed="0">
      <route edges="104340979"/>
  </vehicle>
  <vehicle id="46" type="car" depart="0.00" departPos="29.04" departSpeed="0">
      <route edges="107078373#1"/>
  </vehicle>
  <vehicle id="47" type="car" depart="0.00" departPos="7.67" departSpeed="0">
      <route edges="107090824#0"/>
  </vehicle>
  <vehicle id="48" type="car" depart="0.00" departPos="21.8" departSpeed="0">
      <route edges="107090824#1"/>
  </vehicle>
  <vehicle id="49" type="car" depart="0.00" departPos="24.75" departSpeed="0">
      <route edges="107090824#2"/>
  </vehicle>
  <vehicle id="50" type="car" depart="0.00" departPos="248.59" departSpeed="0">
      <route edges="11100665#1"/>
  </vehicle>
  <vehicle id="51" type="car" depart="0.00" departPos="62.9" departSpeed="0">
      <route edges="11101038"/>
  </vehicle>
  <vehicle id="52" type="car" depart="0.00" departPos="36.45" departSpeed="0">
      <route edges="11101348#1"/>
  </vehicle>
  <vehicle id="53" type="car" depart="0.00" departPos="32.71" departSpeed="0">
      <route edges="11101396#1"/>
  </vehicle>
  <vehicle id="54" type="car" depart="0.00" departPos="4.795" departSpeed="0">
      <route edges="11101396#2"/>
  </vehicle>
  <vehicle id="55" type="car" depart="0.00" departPos="60.795" departSpeed="0">
      <route edges="11101490#1"/>
  </vehicle>
  <vehicle id="56" type="car" depart="0.00" departPos="9.725" departSpeed="0">
      <route edges="11101678#1"/>
  </vehicle>
  <vehicle id="57" type="car" depart="0.00" departPos="62.85" departSpeed="0">
      <route edges="11101678#2"/>
  </vehicle>
  <vehicle id="58" type="car" depart="0.00" departPos="46.03" departSpeed="0">
      <route edges="11101678#5"/>
  </vehicle>
  <vehicle id="59" type="car" depart="0.00" departPos="18.14" departSpeed="0">
      <route edges="11101678#8"/>
  </vehicle>
  <vehicle id="60" type="car" depart="0.00" departPos="37.05" departSpeed="0">
      <route edges="11101678#9"/>
  </vehicle>
  <vehicle id="61" type="car" depart="0.00" departPos="21.895" departSpeed="0">
      <route edges="11101717#1"/>
  </vehicle>
  <vehicle id="62" type="car" depart="0.00" departPos="22.465" departSpeed="0">
      <route edges="11101717#4"/>
  </vehicle>
  <vehicle id="63" type="car" depart="0.00" departPos="41.3" departSpeed="0">
      <route edges="11101717#7"/>
  </vehicle>
  <vehicle id="64" type="car" depart="0.00" departPos="19.875" departSpeed="0">
      <route edges="11101830"/>
  </vehicle>
  <vehicle id="65" type="car" depart="0.00" departPos="40.925" departSpeed="0">
      <route edges="11101836#1"/>
  </vehicle>
  <vehicle id="66" type="car" depart="0.00" departPos="53.225" departSpeed="0">
      <route edges="11101896#1"/>
  </vehicle>
  <vehicle id="67" type="car" depart="0.00" departPos="36.96" departSpeed="0">
      <route edges="116931097"/>
  </vehicle>
  <vehicle id="68" type="car" depart="0.00" departPos="13.885" departSpeed="0">
      <route edges="131431668#0"/>
  </vehicle>
  <vehicle id="69" type="car" depart="0.00" departPos="20.195" departSpeed="0">
      <route edges="131431668#1"/>
  </vehicle>
  <vehicle id="70" type="car" depart="0.00" departPos="18.73" departSpeed="0">
      <route edges="1395587389#0"/>
  </vehicle>
  <vehicle id="71" type="car" depart="0.00" departPos="125.45" departSpeed="0">
      <route edges="14369724#1"/>
  </vehicle>
  <vehicle id="72" type="car" depart="0.00" departPos="70.42" departSpeed="0">
      <route edges="14369724#2"/>
  </vehicle>
  <vehicle id="73" type="car" depart="0.00" departPos="178.855" departSpeed="0">
      <route edges="14369724#3"/>
  </vehicle>
  <vehicle id="74" type="car" depart="0.00" departPos="5.165" departSpeed="0">
      <route edges="14459174#0"/>
  </vehicle>
  <vehicle id="75" type="car" depart="0.00" departPos="5.92" departSpeed="0">
      <route edges="14459174#1"/>
  </vehicle>
  <vehicle id="76" type="car" depart="0.00" departPos="6.4" departSpeed="0">
      <route edges="14459174#2"/>
  </vehicle>
  <vehicle id="77" type="car" depart="0.00" departPos="14.445" departSpeed="0">
      <route edges="14459386#0"/>
  </vehicle>
  <vehicle id="78" type="car" depart="0.00" departPos="9.69" departSpeed="0">
      <route edges="14459386#1"/>
  </vehicle>
  <vehicle id="79" type="car" depart="0.00" departPos="6.96" departSpeed="0">
      <route edges="14459753"/>
  </vehicle>
  <vehicle id="80" type="car" depart="0.00" departPos="4.5" departSpeed="0">
      <route edges="14459845"/>
  </vehicle>
  <vehicle id="81" type="car" depart="0.00" departPos="55.3" departSpeed="0">
      <route edges="14460667#0"/>
  </vehicle>
  <vehicle id="82" type="car" depart="0.00" departPos="16.9" departSpeed="0">
      <route edges="14460667#3"/>
  </vehicle>
  <vehicle id="83" type="car" depart="0.00" departPos="55.665" departSpeed="0">
      <route edges="14481788#1"/>
  </vehicle>
  <vehicle id="84" type="car" depart="0.00" departPos="5.99" departSpeed="0">
      <route edges="14481788#11"/>
  </vehicle>
  <vehicle id="85" type="car" depart="0.00" departPos="28.035" departSpeed="0">
      <route edges="14481788#3"/>
  </vehicle>
  <vehicle id="86" type="car" depart="0.00" departPos="19.835" departSpeed="0">
      <route edges="14481788#4"/>
  </vehicle>
  <vehicle id="87" type="car" depart="0.00" departPos="52.675" departSpeed="0">
      <route edges="14481788#6"/>
  </vehicle>
  <vehicle id="88" type="car" depart="0.00" departPos="244.825" departSpeed="0">
      <route edges="14481788#9"/>
  </vehicle>
  <vehicle id="89" type="car" depart="0.00" departPos="8.085" departSpeed="0">
      <route edges="14771608"/>
  </vehicle>
  <vehicle id="90" type="car" depart="0.00" departPos="5.295" departSpeed="0">
      <route edges="161638119#3"/>
  </vehicle>
  <vehicle id="91" type="car" depart="0.00" departPos="12.76" departSpeed="0">
      <route edges="161793151#0"/>
  </vehicle>
  <vehicle id="92" type="car" depart="0.00" departPos="14.435" departSpeed="0">
      <route edges="161793151#1"/>
  </vehicle>
  <vehicle id="93" type="car" depart="0.00" departPos="9.725" departSpeed="0">
      <route edges="161793152#1"/>
  </vehicle>
  <vehicle id="94" type="car" depart="0.00" departPos="9.525" departSpeed="0">
      <route edges="161793152#2"/>
  </vehicle>
  <vehicle id="95" type="car" depart="0.00" departPos="56.9" departSpeed="0">
      <route edges="16183492"/>
  </vehicle>
  <vehicle id="96" type="car" depart="0.00" departPos="37.285" departSpeed="0">
      <route edges="182096890"/>
  </vehicle>
  <vehicle id="97" type="car" depart="0.00" departPos="3.995" departSpeed="0">
      <route edges="187020465#0"/>
  </vehicle>
  <vehicle id="98" type="car" depart="0.00" departPos="10.605" departSpeed="0">
      <route edges="187020466"/>
  </vehicle>
  <vehicle id="99" type="car" depart="0.00" departPos="13.71" departSpeed="0">
      <route edges="187020467"/>
  </vehicle>
  <vehicle id="100" type="car" depart="0.00" departPos="12.25" departSpeed="0">
      <route edges="187020468"/>
  </vehicle>
  <vehicle id="101" type="car" depart="0.00" departPos="20.27" departSpeed="0">
      <route edges="195664261#0"/>
  </vehicle>
  <vehicle id="102" type="car" depart="0.00" departPos="25.33" departSpeed="0">
      <route edges="195664261#2"/>
  </vehicle>
  <vehicle id="103" type="car" depart="0.00" departPos="14.385" departSpeed="0">
      <route edges="195664262"/>
  </vehicle>
  <vehicle id="104" type="car" depart="0.00" departPos="25.715" departSpeed="0">
      <route edges="195664263#0"/>
  </vehicle>
  <vehicle id="105" type="car" depart="0.00" departPos="25.89" departSpeed="0">
      <route edges="195664263#1"/>
  </vehicle>
  <vehicle id="106" type="car" depart="0.00" departPos="25.975" departSpeed="0">
      <route edges="195664263#2"/>
  </vehicle>
  <vehicle id="107" type="car" depart="0.00" departPos="22.91" departSpeed="0">
      <route edges="219137730#1"/>
  </vehicle>
  <vehicle id="108" type="car" depart="0.00" departPos="7.245" departSpeed="0">
      <route edges="24222352#1"/>
  </vehicle>
  <vehicle id="109" type="car" depart="0.00" departPos="40.925" departSpeed="0">
      <route edges="24222380#1"/>
  </vehicle>
  <vehicle id="110" type="car" depart="0.00" departPos="6.49" departSpeed="0">
      <route edges="24222380#10"/>
  </vehicle>
  <vehicle id="111" type="car" depart="0.00" departPos="21.215" departSpeed="0">
      <route edges="24222380#4"/>
  </vehicle>
  <vehicle id="112" type="car" depart="0.00" departPos="22.595" departSpeed="0">
      <route edges="24222380#7"/>
  </vehicle>
  <vehicle id="113" type="car" depart="0.00" departPos="51.805" departSpeed="0">
      <route edges="24222380#8"/>
  </vehicle>
  <vehicle id="114" type="car" depart="0.00" departPos="17.935" departSpeed="0">
      <route edges="24225793#0"/>
  </vehicle>
  <vehicle id="115" type="car" depart="0.00" departPos="69.245" departSpeed="0">
      <route edges="24225793#1"/>
  </vehicle>
  <vehicle id="116" type="car" depart="0.00" departPos="49.45" departSpeed="0">
      <route edges="24225793#10"/>
  </vehicle>
  <vehicle id="117" type="car" depart="0.00" departPos="52.495" departSpeed="0">
      <route edges="24225793#3"/>
  </vehicle>
  <vehicle id="118" type="car" depart="0.00" departPos="5.845" departSpeed="0">
      <route edges="24225793#5"/>
  </vehicle>
  <vehicle id="119" type="car" depart="0.00" departPos="5.385" departSpeed="0">
      <route edges="24225793#6"/>
  </vehicle>
  <vehicle id="120" type="car" depart="0.00" departPos="24.38" departSpeed="0">
      <route edges="24225793#8"/>
  </vehicle>
  <vehicle id="121" type="car" depart="0.00" departPos="60.98" departSpeed="0">
      <route edges="24275863#0"/>
  </vehicle>
  <vehicle id="122" type="car" depart="0.00" departPos="39.655" departSpeed="0">
      <route edges="24791395#1"/>
  </vehicle>
  <vehicle id="123" type="car" depart="0.00" departPos="35.48" departSpeed="0">
      <route edges="24791395#4"/>
  </vehicle>
  <vehicle id="124" type="car" depart="0.00" departPos="25.715" departSpeed="0">
      <route edges="24791406#1"/>
  </vehicle>
  <vehicle id="125" type="car" depart="0.00" departPos="25.475" departSpeed="0">
      <route edges="24791406#4"/>
  </vehicle>
  <vehicle id="126" type="car" depart="0.00" departPos="40.87" departSpeed="0">
      <route edges="24791417#1"/>
  </vehicle>
  <vehicle id="127" type="car" depart="0.00" departPos="12.095" departSpeed="0">
      <route edges="248905968"/>
  </vehicle>
  <vehicle id="128" type="car" depart="0.00" departPos="24.2" departSpeed="0">
      <route edges="249767952#1"/>
  </vehicle>
  <vehicle id="129" type="car" depart="0.00" departPos="27.28" departSpeed="0">
      <route edges="249767952#3"/>
  </vehicle>
  <vehicle id="130" type="car" depart="0.00" departPos="4.28" departSpeed="0">
      <route edges="255327642#0"/>
  </vehicle>
  <vehicle id="131" type="car" depart="0.00" departPos="244.58" departSpeed="0">
      <route edges="255327642#2"/>
  </vehicle>
  <vehicle id="132" type="car" depart="0.00" departPos="54.18" departSpeed="0">
      <route edges="255327642#5"/>
  </vehicle>
  <vehicle id="133" type="car" depart="0.00" departPos="51.41" departSpeed="0">
      <route edges="255327642#6"/>
  </vehicle>
  <vehicle id="134" type="car" depart="0.00" departPos="50.665" departSpeed="0">
      <route edges="255327642#9"/>
  </vehicle>
  <vehicle id="135" type="car" depart="0.00" departPos="30.98" departSpeed="0">
      <route edges="255825106#1"/>
  </vehicle>
  <vehicle id="136" type="car" depart="0.00" departPos="55.69" departSpeed="0">
      <route edges="255825107#0"/>
  </vehicle>
  <vehicle id="137" type="car" depart="0.00" departPos="9.335" departSpeed="0">
      <route edges="26568013#1"/>
  </vehicle>
  <vehicle id="138" type="car" depart="0.00" departPos="16.945" departSpeed="0">
      <route edges="27173247"/>
  </vehicle>
  <vehicle id="139" type="car" depart="0.00" departPos="24.775" departSpeed="0">
      <route edges="27173565#2"/>
  </vehicle>
  <vehicle id="140" type="car" depart="0.00" departPos="26.81" departSpeed="0">
      <route edges="27173565#3"/>
  </vehicle>
  <vehicle id="141" type="car" depart="0.00" departPos="44.46" departSpeed="0">
      <route edges="27173716#1"/>
  </vehicle>
  <vehicle id="142" type="car" depart="0.00" departPos="4.75" departSpeed="0">
      <route edges="27173716#3"/>
  </vehicle>
  <vehicle id="143" type="car" depart="0.00" departPos="19.55" departSpeed="0">
      <route edges="27173918#1"/>
  </vehicle>
  <vehicle id="144" type="car" depart="0.00" departPos="19.62" departSpeed="0">
      <route edges="27173918#2"/>
  </vehicle>
  <vehicle id="145" type="car" depart="0.00" departPos="5.975" departSpeed="0">
      <route edges="27464019#1"/>
  </vehicle>
  <vehicle id="146" type="car" depart="0.00" departPos="7.35" departSpeed="0">
      <route edges="27926842#0"/>
  </vehicle>
  <vehicle id="147" type="car" depart="0.00" departPos="19.305" departSpeed="0">
      <route edges="27926842#2"/>
  </vehicle>
  <vehicle id="148" type="car" depart="0.00" departPos="3.925" departSpeed="0">
      <route edges="27926842#3"/>
  </vehicle>
  <vehicle id="149" type="car" depart="0.00" departPos="19.68" departSpeed="0">
      <route edges="302644186#1"/>
  </vehicle>
  <vehicle id="150" type="car" depart="0.00" departPos="21.405" departSpeed="0">
      <route edges="302644186#4"/>
  </vehicle>
  <vehicle id="151" type="car" depart="0.00" departPos="23.185" departSpeed="0">
      <route edges="302644186#7"/>
  </vehicle>
  <vehicle id="152" type="car" depart="0.00" departPos="65.6" departSpeed="0">
      <route edges="303407842#0"/>
  </vehicle>
  <vehicle id="153" type="car" depart="0.00" departPos="14.115" departSpeed="0">
      <route edges="303407842#1"/>
  </vehicle>
  <vehicle id="154" type="car" depart="0.00" departPos="118.005" departSpeed="0">
      <route edges="303407852#0"/>
  </vehicle>
  <vehicle id="155" type="car" depart="0.00" departPos="54.93" departSpeed="0">
      <route edges="303407852#3"/>
  </vehicle>
  <vehicle id="156" type="car" depart="0.00" departPos="55.61" departSpeed="0">
      <route edges="303407852#4"/>
  </vehicle>
  <vehicle id="157" type="car" depart="0.00" departPos="54.58" departSpeed="0">
      <route edges="303407852#5"/>
  </vehicle>
  <vehicle id="158" type="car" depart="0.00" departPos="3.88" departSpeed="0">
      <route edges="311144366"/>
  </vehicle>
  <vehicle id="159" type="car" depart="0.00" departPos="36.785" departSpeed="0">
      <route edges="311144367#0"/>
  </vehicle>
  <vehicle id="160" type="car" depart="0.00" departPos="5.47" departSpeed="0">
      <route edges="311144367#1"/>
  </vehicle>
  <vehicle id="161" type="car" depart="0.00" departPos="5.32" departSpeed="0">
      <route edges="311144367#2"/>
  </vehicle>
  <vehicle id="162" type="car" depart="0.00" departPos="4.195" departSpeed="0">
      <route edges="311144373"/>
  </vehicle>
  <vehicle id="163" type="car" depart="0.00" departPos="66.755" departSpeed="0">
      <route edges="311144374#0"/>
  </vehicle>
  <vehicle id="164" type="car" depart="0.00" departPos="20.645" departSpeed="0">
      <route edges="334741193#0"/>
  </vehicle>
  <vehicle id="165" type="car" depart="0.00" departPos="10.22" departSpeed="0">
      <route edges="334741193#2"/>
  </vehicle>
  <vehicle id="166" type="car" depart="0.00" departPos="25.97" departSpeed="0">
      <route edges="334741193#3"/>
  </vehicle>
  <vehicle id="167" type="car" depart="0.00" departPos="19.565" departSpeed="0">
      <route edges="334741193#7"/>
  </vehicle>
  <vehicle id="168" type="car" depart="0.00" departPos="48.905" departSpeed="0">
      <route edges="334741193#8"/>
  </vehicle>
  <vehicle id="169" type="car" depart="0.00" departPos="25.205" departSpeed="0">
      <route edges="334741194"/>
  </vehicle>
  <vehicle id="170" type="car" depart="0.00" departPos="6.56" departSpeed="0">
      <route edges="335720387#0"/>
  </vehicle>
  <vehicle id="171" type="car" depart="0.00" departPos="5.58" departSpeed="0">
      <route edges="335720387#1"/>
  </vehicle>
  <vehicle id="172" type="car" depart="0.00" departPos="65.325" departSpeed="0">
      <route edges="363359196#0"/>
  </vehicle>
  <vehicle id="173" type="car" depart="0.00" departPos="44.045" departSpeed="0">
      <route edges="384969638#1"/>
  </vehicle>
  <vehicle id="174" type="car" depart="0.00" departPos="30.705" departSpeed="0">
      <route edges="392502704#0"/>
  </vehicle>
  <vehicle id="175" type="car" depart="0.00" departPos="6.945" departSpeed="0">
      <route edges="392502705#0"/>
  </vehicle>
  <vehicle id="176" type="car" depart="0.00" departPos="9.925" departSpeed="0">
      <route edges="392502705#1"/>
  </vehicle>
  <vehicle id="177" type="car" depart="0.00" departPos="7.325" departSpeed="0">
      <route edges="392502706"/>
  </vehicle>
  <vehicle id="178" type="car" depart="0.00" departPos="55.475" departSpeed="0">
      <route edges="421396691#0"/>
  </vehicle>
  <vehicle id="179" type="car" depart="0.00" departPos="32.635" departSpeed="0">
      <route edges="425082671#0"/>
  </vehicle>
  <vehicle id="180" type="car" depart="0.00" departPos="41.55" departSpeed="0">
      <route edges="4314421#1"/>
  </vehicle>
  <vehicle id="181" type="car" depart="0.00" departPos="68.15" departSpeed="0">
      <route edges="4314421#10"/>
  </vehicle>
  <vehicle id="182" type="car" depart="0.00" departPos="213.79" departSpeed="0">
      <route edges="4314421#11"/>
  </vehicle>
  <vehicle id="183" type="car" depart="0.00" departPos="39.685" departSpeed="0">
      <route edges="4314421#4"/>
  </vehicle>
  <vehicle id="184" type="car" depart="0.00" departPos="70.315" departSpeed="0">
      <route edges="4314421#6"/>
  </vehicle>
  <vehicle id="185" type="car" depart="0.00" departPos="116.15" departSpeed="0">
      <route edges="4314421#7"/>
  </vehicle>
  <vehicle id="186" type="car" depart="0.00" departPos="3.975" departSpeed="0">
      <route edges="4314421#8"/>
  </vehicle>
  <vehicle id="187" type="car" depart="0.00" departPos="4.985" departSpeed="0">
      <route edges="4314421#9"/>
  </vehicle>
  <vehicle id="188" type="car" depart="0.00" departPos="7.055" departSpeed="0">
      <route edges="4314423#0"/>
  </vehicle>
  <vehicle id="189" type="car" depart="0.00" departPos="41.305" departSpeed="0">
      <route edges="4314423#1"/>
  </vehicle>
  <vehicle id="190" type="car" depart="0.00" departPos="4.61" departSpeed="0">
      <route edges="4314423#10"/>
  </vehicle>
  <vehicle id="191" type="car" depart="0.00" departPos="13.945" departSpeed="0">
      <route edges="4314423#11"/>
  </vehicle>
  <vehicle id="192" type="car" depart="0.00" departPos="25.26" departSpeed="0">
      <route edges="4314423#3"/>
  </vehicle>
  <vehicle id="193" type="car" depart="0.00" departPos="38.245" departSpeed="0">
      <route edges="4314423#4"/>
  </vehicle>
  <vehicle id="194" type="car" depart="0.00" departPos="4.29" departSpeed="0">
      <route edges="4314423#5"/>
  </vehicle>
  <vehicle id="195" type="car" depart="0.00" departPos="4.49" departSpeed="0">
      <route edges="4314423#6"/>
  </vehicle>
  <vehicle id="196" type="car" depart="0.00" departPos="58.945" departSpeed="0">
      <route edges="4314423#7"/>
  </vehicle>
  <vehicle id="197" type="car" depart="0.00" departPos="10.16" departSpeed="0">
      <route edges="4314423#8"/>
  </vehicle>
  <vehicle id="198" type="car" depart="0.00" departPos="261.95" departSpeed="0">
      <route edges="4314423#9"/>
  </vehicle>
  <vehicle id="199" type="car" depart="0.00" departPos="45.005" departSpeed="0">
      <route edges="4321669#0"/>
  </vehicle>
  <vehicle id="200" type="car" depart="0.00" departPos="20.895" departSpeed="0">
      <route edges="4321669#1"/>
  </vehicle>
  <vehicle id="201" type="car" depart="0.00" departPos="4.82" departSpeed="0">
      <route edges="43407393#0"/>
  </vehicle>
  <vehicle id="202" type="car" depart="0.00" departPos="62.055" departSpeed="0">
      <route edges="43407393#1"/>
  </vehicle>
  <vehicle id="203" type="car" depart="0.00" departPos="41.095" departSpeed="0">
      <route edges="43407393#3"/>
  </vehicle>
  <vehicle id="204" type="car" depart="0.00" departPos="45.125" departSpeed="0">
      <route edges="43407393#6"/>
  </vehicle>
  <vehicle id="205" type="car" depart="0.00" departPos="33.44" departSpeed="0">
      <route edges="43410334#1"/>
  </vehicle>
  <vehicle id="206" type="car" depart="0.00" departPos="7.23" departSpeed="0">
      <route edges="43410334#2"/>
  </vehicle>
  <vehicle id="207" type="car" depart="0.00" departPos="18.32" departSpeed="0">
      <route edges="43410334#3"/>
  </vehicle>
  <vehicle id="208" type="car" depart="0.00" departPos="52.33" departSpeed="0">
      <route edges="43410334#5"/>
  </vehicle>
  <vehicle id="209" type="car" depart="0.00" departPos="8.815" departSpeed="0">
      <route edges="43410334#7"/>
  </vehicle>
  <vehicle id="210" type="car" depart="0.00" departPos="37.935" departSpeed="0">
      <route edges="43410334#8"/>
  </vehicle>
  <vehicle id="211" type="car" depart="0.00" departPos="58.73" departSpeed="0">
      <route edges="43410335#0"/>
  </vehicle>
  <vehicle id="212" type="car" depart="0.00" departPos="19.125" departSpeed="0">
      <route edges="43410335#1"/>
  </vehicle>
  <vehicle id="213" type="car" depart="0.00" departPos="8.515" departSpeed="0">
      <route edges="43410336#0"/>
  </vehicle>
  <vehicle id="214" type="car" depart="0.00" departPos="7.49" departSpeed="0">
      <route edges="43410336#1"/>
  </vehicle>
  <vehicle id="215" type="car" depart="0.00" departPos="60.495" departSpeed="0">
      <route edges="43759960#0"/>
  </vehicle>
  <vehicle id="216" type="car" depart="0.00" departPos="58.76" departSpeed="0">
      <route edges="43759962#0"/>
  </vehicle>
  <vehicle id="217" type="car" depart="0.00" departPos="4.12" departSpeed="0">
      <route edges="44335068#0"/>
  </vehicle>
  <vehicle id="218" type="car" depart="0.00" departPos="4.835" departSpeed="0">
      <route edges="44335068#1"/>
  </vehicle>
  <vehicle id="219" type="car" depart="0.00" departPos="211.86" departSpeed="0">
      <route edges="44335079"/>
  </vehicle>
  <vehicle id="220" type="car" depart="0.00" departPos="58.74" departSpeed="0">
      <route edges="44336472#1"/>
  </vehicle>
  <vehicle id="221" type="car" depart="0.00" departPos="37.405" departSpeed="0">
      <route edges="44336472#4"/>
  </vehicle>
  <vehicle id="222" type="car" depart="0.00" departPos="8.045" departSpeed="0">
      <route edges="44336472#5"/>
  </vehicle>
  <vehicle id="223" type="car" depart="0.00" departPos="24.31" departSpeed="0">
      <route edges="44336472#8"/>
  </vehicle>
  <vehicle id="224" type="car" depart="0.00" departPos="47.11" departSpeed="0">
      <route edges="44336473#1"/>
  </vehicle>
  <vehicle id="225" type="car" depart="0.00" departPos="32.34" departSpeed="0">
      <route edges="44336474#1"/>
  </vehicle>
  <vehicle id="226" type="car" depart="0.00" departPos="41.64" departSpeed="0">
      <route edges="44336475#1"/>
  </vehicle>
  <vehicle id="227" type="car" depart="0.00" departPos="193.42" departSpeed="0">
      <route edges="44336475#4"/>
  </vehicle>
  <vehicle id="228" type="car" depart="0.00" departPos="5.105" departSpeed="0">
      <route edges="44336475#5"/>
  </vehicle>
  <vehicle id="229" type="car" depart="0.00" departPos="22.75" departSpeed="0">
      <route edges="44737271#0"/>
  </vehicle>
  <vehicle id="230" type="car" depart="0.00" departPos="43.52" departSpeed="0">
      <route edges="44737273#0"/>
  </vehicle>
  <vehicle id="231" type="car" depart="0.00" departPos="6.175" departSpeed="0">
      <route edges="44737274#1"/>
  </vehicle>
  <vehicle id="232" type="car" depart="0.00" departPos="16.215" departSpeed="0">
      <route edges="44737274#2"/>
  </vehicle>
  <vehicle id="233" type="car" depart="0.00" departPos="9.72" departSpeed="0">
      <route edges="44737275#0"/>
  </vehicle>